@<TRIPOS>MOLECULE
C:\Users\Ganatra\Desktop\Research Project\Vina5\Compound1\ligand.pdbqt
 32 35 0 0 0
SMALL
GASTEIGER

@<TRIPOS>ATOM
      1  C         -7.3470   -1.7550    0.0000 C.ar    0  UNK0        0.0780
      2  C         -6.0130   -0.9850    0.0000 C.ar    0  UNK0       -0.0110
      3  C         -6.0130    0.5550    0.0000 C.ar    0  UNK0       -0.0440
      4  C         -7.3470    1.3250    0.0000 C.ar    0  UNK0        0.0520
      5  C         -8.6800    0.5550    0.0000 C.ar    0  UNK0        0.1340
      6  C         -8.6800   -0.9850    0.0000 C.ar    0  UNK0        0.0820
      7  C         -4.6790   -1.7550    0.0000 C.ar    0  UNK0        0.0270
      8  C         -3.3460   -0.9850    0.0000 C.ar    0  UNK0        0.0050
      9  C         -3.3460    0.5550    0.0000 C.ar    0  UNK0        0.0050
     10  C         -4.6790    1.3250    0.0000 C.ar    0  UNK0        0.0220
     11  O         -7.3470   -3.2950    0.0000 O.3     0  UNK0       -0.2890
     12  C         -8.6800   -4.0650    0.0000 C.2     0  UNK0        0.2250
     13  O        -10.0140   -3.2950    0.0000 O.2     0  UNK0       -0.1640
     14  C         -8.6800   -5.6050    0.0000 C.ar    0  UNK0        0.0120
     15  C        -10.0140   -6.3750    0.0000 C.ar    0  UNK0        0.0850
     16  C        -10.0140   -7.9150    0.0000 C.ar    0  UNK0        0.1430
     17  C         -8.6800   -8.6850    0.0000 C.ar    0  UNK0        0.1320
     18  F        -11.3480   -8.6850    0.0000 F       0  UNK0       -0.2070
     19  C         -7.3470   -7.9150    0.0000 C.ar    0  UNK0        0.0610
     20  O         -8.6800  -10.2250    0.0000 O.3     0  UNK0       -0.1930
     21  C         -7.3470   -6.3750    0.0000 C.ar    0  UNK0        0.0340
     22  O        -10.0140    1.3250    0.0000 O.3     0  UNK0       -0.3110
     23  C        -10.0140    2.8650    0.0000 C.2     0  UNK0        0.2210
     24  O         -8.6800    3.6350    0.0000 O.2     0  UNK0       -0.1640
     25  C        -11.3480    3.6350    0.0000 C.ar    0  UNK0        0.0120
     26  C        -12.6810    2.8650    0.0000 C.ar    0  UNK0        0.0340
     27  C        -14.0150    3.6350    0.0000 C.ar    0  UNK0        0.0610
     28  C        -14.0150    5.1750    0.0000 C.ar    0  UNK0        0.1320
     29  C        -12.6810    5.9450    0.0000 C.ar    0  UNK0        0.1430
     30  O        -15.3490    5.9450    0.0000 O.3     0  UNK0       -0.1930
     31  C        -11.3480    5.1750    0.0000 C.ar    0  UNK0        0.0850
     32  F        -12.6810    7.4850    0.0000 F       0  UNK0       -0.2070
@<TRIPOS>BOND
     1     1     2   ar
     2     1     6   ar
     3     1    11    1
     4     2     3   ar
     5     2     7   ar
     6     3     4   ar
     7     3    10   ar
     8     4     5   ar
     9     5     6   ar
    10     5    22    1
    11     7     8   ar
    12     8     9   ar
    13     9    10   ar
    14    11    12    1
    15    12    13    2
    16    12    14    1
    17    14    15   ar
    18    14    21   ar
    19    15    16   ar
    20    16    17   ar
    21    16    18    1
    22    17    19   ar
    23    17    20    1
    24    19    21   ar
    25    22    23    1
    26    23    24    2
    27    23    25    1
    28    25    26   ar
    29    25    31   ar
    30    26    27   ar
    31    27    28   ar
    32    28    29   ar
    33    28    30    1
    34    29    31   ar
    35    29    32    1
