REMARK  6 active torsions:
REMARK  status: ('A' for Active; 'I' for Inactive)
REMARK    1  A    between atoms: C_1  and  O_11 
REMARK    2  A    between atoms: C_5  and  O_12 
REMARK    3  A    between atoms: O_11  and  C_23 
REMARK    4  A    between atoms: O_12  and  C_13 
REMARK    5  A    between atoms: C_13  and  C_14 
REMARK    6  A    between atoms: C_23  and  C_24 
ROOT
HETATM    1  C   UNK     0      -7.347  -1.755   0.000  0.00  0.00     0.078 A 
HETATM    2  C   UNK     0      -6.013  -0.985   0.000  0.00  0.00    -0.011 A 
HETATM    3  C   UNK     0      -6.013   0.555   0.000  0.00  0.00    -0.044 A 
HETATM    4  C   UNK     0      -7.347   1.325   0.000  0.00  0.00     0.052 A 
HETATM    5  C   UNK     0      -8.680   0.555   0.000  0.00  0.00     0.134 A 
HETATM    6  C   UNK     0      -8.680  -0.985   0.000  0.00  0.00     0.082 A 
HETATM    7  C   UNK     0      -4.679  -1.755   0.000  0.00  0.00     0.027 A 
HETATM    8  C   UNK     0      -3.346  -0.985   0.000  0.00  0.00     0.005 A 
HETATM    9  C   UNK     0      -3.346   0.555   0.000  0.00  0.00     0.005 A 
HETATM   10  C   UNK     0      -4.679   1.325   0.000  0.00  0.00     0.022 A 
ENDROOT
BRANCH   1  11
HETATM   11  O   UNK     0      -7.347  -3.295   0.000  0.00  0.00    -0.289 OA
BRANCH  11  12
HETATM   12  C   UNK     0      -8.680  -4.065   0.000  0.00  0.00     0.225 C 
HETATM   13  O   UNK     0     -10.014  -3.295   0.000  0.00  0.00    -0.164 OA
BRANCH  12  14
HETATM   14  C   UNK     0      -8.680  -5.605   0.000  0.00  0.00     0.012 A 
HETATM   15  C   UNK     0     -10.014  -6.375   0.000  0.00  0.00     0.085 A 
HETATM   16  C   UNK     0     -10.014  -7.915   0.000  0.00  0.00     0.143 A 
HETATM   17  C   UNK     0      -8.680  -8.685   0.000  0.00  0.00     0.132 A 
HETATM   18  F   UNK     0     -11.348  -8.685   0.000  0.00  0.00    -0.207 F 
HETATM   19  C   UNK     0      -7.347  -7.915   0.000  0.00  0.00     0.061 A 
HETATM   20  O   UNK     0      -8.680 -10.225   0.000  0.00  0.00    -0.193 OA
HETATM   21  C   UNK     0      -7.347  -6.375   0.000  0.00  0.00     0.034 A 
ENDBRANCH  12  14
ENDBRANCH  11  12
ENDBRANCH   1  11
BRANCH   5  22
HETATM   22  O   UNK     0     -10.014   1.325   0.000  0.00  0.00    -0.311 OA
BRANCH  22  23
HETATM   23  C   UNK     0     -10.014   2.865   0.000  0.00  0.00     0.221 C 
HETATM   24  O   UNK     0      -8.680   3.635   0.000  0.00  0.00    -0.164 OA
BRANCH  23  25
HETATM   25  C   UNK     0     -11.348   3.635   0.000  0.00  0.00     0.012 A 
HETATM   26  C   UNK     0     -12.681   2.865   0.000  0.00  0.00     0.034 A 
HETATM   27  C   UNK     0     -14.015   3.635   0.000  0.00  0.00     0.061 A 
HETATM   28  C   UNK     0     -14.015   5.175   0.000  0.00  0.00     0.132 A 
HETATM   29  C   UNK     0     -12.681   5.945   0.000  0.00  0.00     0.143 A 
HETATM   30  O   UNK     0     -15.349   5.945   0.000  0.00  0.00    -0.193 OA
HETATM   31  C   UNK     0     -11.348   5.175   0.000  0.00  0.00     0.085 A 
HETATM   32  F   UNK     0     -12.681   7.485   0.000  0.00  0.00    -0.207 F 
ENDBRANCH  23  25
ENDBRANCH  22  23
ENDBRANCH   5  22
TORSDOF 6
