MODEL 1
REMARK VINA RESULT:      -9.3      0.000      0.000
REMARK  6 active torsions:
REMARK  status: ('A' for Active; 'I' for Inactive)
REMARK    1  A    between atoms: C_1  and  O_11 
REMARK    2  A    between atoms: C_5  and  O_12 
REMARK    3  A    between atoms: O_11  and  C_23 
REMARK    4  A    between atoms: O_12  and  C_13 
REMARK    5  A    between atoms: C_13  and  C_14 
REMARK    6  A    between atoms: C_23  and  C_24 
ROOT
HETATM    1  C   UNK     0      -8.349 -32.906   2.995  0.00  0.00     0.078 A 
HETATM    2  C   UNK     0      -7.397 -33.979   3.557  0.00  0.00    -0.011 A 
HETATM    3  C   UNK     0      -6.408 -34.697   2.621  0.00  0.00    -0.044 A 
HETATM    4  C   UNK     0      -6.369 -34.341   1.123  0.00  0.00     0.052 A 
HETATM    5  C   UNK     0      -7.320 -33.268   0.562  0.00  0.00     0.134 A 
HETATM    6  C   UNK     0      -8.310 -32.551   1.498  0.00  0.00     0.082 A 
HETATM    7  C   UNK     0      -7.436 -34.334   5.055  0.00  0.00     0.027 A 
HETATM    8  C   UNK     0      -6.485 -35.407   5.617  0.00  0.00     0.005 A 
HETATM    9  C   UNK     0      -5.495 -36.125   4.680  0.00  0.00     0.005 A 
HETATM   10  C   UNK     0      -5.456 -35.770   3.183  0.00  0.00     0.022 A 
ENDROOT
BRANCH   1  11
HETATM   11  O   UNK     0      -9.338 -32.188   3.932  0.00  0.00    -0.289 OA
BRANCH  11  12
HETATM   12  C   UNK     0     -10.727 -32.797   4.198  0.00  0.00     0.225 C 
HETATM   13  O   UNK     0     -11.407 -33.663   3.121  0.00  0.00    -0.164 OA
BRANCH  12  14
HETATM   14  C   UNK     0     -11.435 -32.542   5.541  0.00  0.00     0.012 A 
HETATM   15  C   UNK     0     -12.912 -32.105   5.562  0.00  0.00     0.085 A 
HETATM   16  C   UNK     0     -13.621 -31.850   6.905  0.00  0.00     0.143 A 
HETATM   17  C   UNK     0     -12.853 -32.031   8.227  0.00  0.00     0.132 A 
HETATM   18  F   UNK     0     -15.098 -31.413   6.925  0.00  0.00    -0.207 F 
HETATM   19  C   UNK     0     -11.377 -32.468   8.206  0.00  0.00     0.061 A 
HETATM   20  O   UNK     0     -13.562 -31.776   9.571  0.00  0.00    -0.193 OA
HETATM   21  C   UNK     0     -10.668 -32.723   6.863  0.00  0.00     0.034 A 
ENDBRANCH  12  14
ENDBRANCH  11  12
ENDBRANCH   1  11
BRANCH   5  22
HETATM   22  O   UNK     0      -7.282 -32.913  -0.937  0.00  0.00    -0.311 OA
BRANCH  22  23
HETATM   23  C   UNK     0      -6.472 -31.695  -1.418  0.00  0.00     0.221 C 
HETATM   24  O   UNK     0      -5.272 -31.192  -0.593  0.00  0.00    -0.164 OA
BRANCH  23  25
HETATM   25  C   UNK     0      -6.863 -30.978  -2.725  0.00  0.00     0.012 A 
HETATM   26  C   UNK     0      -6.144 -29.681  -3.135  0.00  0.00     0.034 A 
HETATM   27  C   UNK     0      -6.534 -28.964  -4.442  0.00  0.00     0.061 A 
HETATM   28  C   UNK     0      -7.644 -29.547  -5.337  0.00  0.00     0.132 A 
HETATM   29  C   UNK     0      -8.363 -30.846  -4.926  0.00  0.00     0.143 A 
HETATM   30  O   UNK     0      -8.034 -28.831  -6.644  0.00  0.00    -0.193 OA
HETATM   31  C   UNK     0      -7.972 -31.561  -3.620  0.00  0.00     0.085 A 
HETATM   32  F   UNK     0      -9.472 -31.428  -5.822  0.00  0.00    -0.207 F 
ENDBRANCH  23  25
ENDBRANCH  22  23
ENDBRANCH   5  22
TORSDOF 6
ENDMDL
MODEL 2
REMARK VINA RESULT:      -9.2      3.851      5.677
REMARK  6 active torsions:
REMARK  status: ('A' for Active; 'I' for Inactive)
REMARK    1  A    between atoms: C_1  and  O_11 
REMARK    2  A    between atoms: C_5  and  O_12 
REMARK    3  A    between atoms: O_11  and  C_23 
REMARK    4  A    between atoms: O_12  and  C_13 
REMARK    5  A    between atoms: C_13  and  C_14 
REMARK    6  A    between atoms: C_23  and  C_24 
ROOT
HETATM    1  C   UNK     0      -8.456 -33.730  -0.150  0.00  0.00     0.078 A 
HETATM    2  C   UNK     0      -9.756 -32.919   0.007  0.00  0.00    -0.011 A 
HETATM    3  C   UNK     0      -9.757 -31.404  -0.271  0.00  0.00    -0.044 A 
HETATM    4  C   UNK     0      -8.458 -30.701  -0.707  0.00  0.00     0.052 A 
HETATM    5  C   UNK     0      -7.159 -31.512  -0.865  0.00  0.00     0.134 A 
HETATM    6  C   UNK     0      -7.158 -33.026  -0.586  0.00  0.00     0.082 A 
HETATM    7  C   UNK     0     -11.055 -33.623   0.444  0.00  0.00     0.027 A 
HETATM    8  C   UNK     0     -12.354 -32.812   0.601  0.00  0.00     0.005 A 
HETATM    9  C   UNK     0     -12.355 -31.297   0.322  0.00  0.00     0.005 A 
HETATM   10  C   UNK     0     -11.057 -30.593  -0.114  0.00  0.00     0.022 A 
ENDROOT
BRANCH   1  11
HETATM   11  O   UNK     0      -8.455 -35.245   0.128  0.00  0.00    -0.289 OA
BRANCH  11  12
HETATM   12  C   UNK     0      -7.190 -35.925   0.684  0.00  0.00     0.225 C 
HETATM   13  O   UNK     0      -6.352 -36.847  -0.221  0.00  0.00    -0.164 OA
BRANCH  12  14
HETATM   14  C   UNK     0      -6.764 -35.683   2.144  0.00  0.00     0.012 A 
HETATM   15  C   UNK     0      -7.515 -34.650   3.004  0.00  0.00     0.085 A 
HETATM   16  C   UNK     0      -7.088 -34.408   4.464  0.00  0.00     0.143 A 
HETATM   17  C   UNK     0      -5.910 -35.199   5.063  0.00  0.00     0.132 A 
HETATM   18  F   UNK     0      -7.840 -33.375   5.325  0.00  0.00    -0.207 F 
HETATM   19  C   UNK     0      -5.159 -36.231   4.203  0.00  0.00     0.061 A 
HETATM   20  O   UNK     0      -5.484 -34.957   6.523  0.00  0.00    -0.193 OA
HETATM   21  C   UNK     0      -5.586 -36.473   2.743  0.00  0.00     0.034 A 
ENDBRANCH  12  14
ENDBRANCH  11  12
ENDBRANCH   1  11
BRANCH   5  22
HETATM   22  O   UNK     0      -5.860 -30.808  -1.301  0.00  0.00    -0.311 OA
BRANCH  22  23
HETATM   23  C   UNK     0      -5.520 -30.678  -2.797  0.00  0.00     0.221 C 
HETATM   24  O   UNK     0      -4.230 -31.312  -3.352  0.00  0.00    -0.164 OA
BRANCH  23  25
HETATM   25  C   UNK     0      -6.470 -29.914  -3.739  0.00  0.00     0.012 A 
HETATM   26  C   UNK     0      -7.398 -30.690  -4.690  0.00  0.00     0.034 A 
HETATM   27  C   UNK     0      -8.348 -29.927  -5.632  0.00  0.00     0.061 A 
HETATM   28  C   UNK     0      -8.369 -28.387  -5.622  0.00  0.00     0.132 A 
HETATM   29  C   UNK     0      -7.439 -27.611  -4.670  0.00  0.00     0.143 A 
HETATM   30  O   UNK     0      -9.318 -27.623  -6.564  0.00  0.00    -0.193 OA
HETATM   31  C   UNK     0      -6.490 -28.375  -3.729  0.00  0.00     0.085 A 
HETATM   32  F   UNK     0      -7.460 -26.071  -4.659  0.00  0.00    -0.207 F 
ENDBRANCH  23  25
ENDBRANCH  22  23
ENDBRANCH   5  22
TORSDOF 6
ENDMDL
MODEL 3
REMARK VINA RESULT:      -9.2      4.175     10.083
REMARK  6 active torsions:
REMARK  status: ('A' for Active; 'I' for Inactive)
REMARK    1  A    between atoms: C_1  and  O_11 
REMARK    2  A    between atoms: C_5  and  O_12 
REMARK    3  A    between atoms: O_11  and  C_23 
REMARK    4  A    between atoms: O_12  and  C_13 
REMARK    5  A    between atoms: C_13  and  C_14 
REMARK    6  A    between atoms: C_23  and  C_24 
ROOT
HETATM    1  C   UNK     0      -7.406 -31.340  -0.960  0.00  0.00     0.078 A 
HETATM    2  C   UNK     0      -8.712 -30.533  -0.841  0.00  0.00    -0.011 A 
HETATM    3  C   UNK     0     -10.018 -31.237  -0.428  0.00  0.00    -0.044 A 
HETATM    4  C   UNK     0     -10.018 -32.749  -0.134  0.00  0.00     0.052 A 
HETATM    5  C   UNK     0      -8.712 -33.556  -0.253  0.00  0.00     0.134 A 
HETATM    6  C   UNK     0      -7.407 -32.852  -0.667  0.00  0.00     0.082 A 
HETATM    7  C   UNK     0      -8.712 -29.021  -1.135  0.00  0.00     0.027 A 
HETATM    8  C   UNK     0     -10.018 -28.214  -1.015  0.00  0.00     0.005 A 
HETATM    9  C   UNK     0     -11.324 -28.918  -0.602  0.00  0.00     0.005 A 
HETATM   10  C   UNK     0     -11.324 -30.429  -0.308  0.00  0.00     0.022 A 
ENDROOT
BRANCH   1  11
HETATM   11  O   UNK     0      -6.101 -30.636  -1.374  0.00  0.00    -0.289 OA
BRANCH  11  12
HETATM   12  C   UNK     0      -5.724 -30.524  -2.862  0.00  0.00     0.225 C 
HETATM   13  O   UNK     0      -4.421 -31.165  -3.377  0.00  0.00    -0.164 OA
BRANCH  12  14
HETATM   14  C   UNK     0      -6.649 -29.772  -3.836  0.00  0.00     0.012 A 
HETATM   15  C   UNK     0      -6.642 -28.232  -3.872  0.00  0.00     0.085 A 
HETATM   16  C   UNK     0      -7.567 -27.480  -4.846  0.00  0.00     0.143 A 
HETATM   17  C   UNK     0      -8.500 -28.267  -5.785  0.00  0.00     0.132 A 
HETATM   18  F   UNK     0      -7.559 -25.940  -4.882  0.00  0.00    -0.207 F 
HETATM   19  C   UNK     0      -8.508 -29.806  -5.749  0.00  0.00     0.061 A 
HETATM   20  O   UNK     0      -9.426 -27.515  -6.759  0.00  0.00    -0.193 OA
HETATM   21  C   UNK     0      -7.582 -30.559  -4.775  0.00  0.00     0.034 A 
ENDBRANCH  12  14
ENDBRANCH  11  12
ENDBRANCH   1  11
BRANCH   5  22
HETATM   22  O   UNK     0      -8.712 -35.068   0.041  0.00  0.00    -0.311 OA
BRANCH  22  23
HETATM   23  C   UNK     0      -7.454 -35.738   0.624  0.00  0.00     0.221 C 
HETATM   24  O   UNK     0      -6.574 -36.632  -0.270  0.00  0.00    -0.164 OA
BRANCH  23  25
HETATM   25  C   UNK     0      -7.077 -35.516   2.100  0.00  0.00     0.012 A 
HETATM   26  C   UNK     0      -7.808 -34.443   2.928  0.00  0.00     0.034 A 
HETATM   27  C   UNK     0      -7.431 -34.220   4.404  0.00  0.00     0.061 A 
HETATM   28  C   UNK     0      -6.323 -35.071   5.053  0.00  0.00     0.132 A 
HETATM   29  C   UNK     0      -5.593 -36.145   4.225  0.00  0.00     0.143 A 
HETATM   30  O   UNK     0      -5.946 -34.849   6.530  0.00  0.00    -0.193 OA
HETATM   31  C   UNK     0      -5.970 -36.367   2.749  0.00  0.00     0.085 A 
HETATM   32  F   UNK     0      -4.485 -36.996   4.873  0.00  0.00    -0.207 F 
ENDBRANCH  23  25
ENDBRANCH  22  23
ENDBRANCH   5  22
TORSDOF 6
ENDMDL
MODEL 4
REMARK VINA RESULT:      -9.2      2.500     10.061
REMARK  6 active torsions:
REMARK  status: ('A' for Active; 'I' for Inactive)
REMARK    1  A    between atoms: C_1  and  O_11 
REMARK    2  A    between atoms: C_5  and  O_12 
REMARK    3  A    between atoms: O_11  and  C_23 
REMARK    4  A    between atoms: O_12  and  C_13 
REMARK    5  A    between atoms: C_13  and  C_14 
REMARK    6  A    between atoms: C_23  and  C_24 
ROOT
HETATM    1  C   UNK     0      -8.578 -34.124   2.274  0.00  0.00     0.078 A 
HETATM    2  C   UNK     0      -7.446 -34.702   3.144  0.00  0.00    -0.011 A 
HETATM    3  C   UNK     0      -7.359 -34.336   4.637  0.00  0.00    -0.044 A 
HETATM    4  C   UNK     0      -8.405 -33.392   5.260  0.00  0.00     0.052 A 
HETATM    5  C   UNK     0      -9.536 -32.815   4.390  0.00  0.00     0.134 A 
HETATM    6  C   UNK     0      -9.622 -33.181   2.897  0.00  0.00     0.082 A 
HETATM    7  C   UNK     0      -6.400 -35.646   2.521  0.00  0.00     0.027 A 
HETATM    8  C   UNK     0      -5.269 -36.223   3.391  0.00  0.00     0.005 A 
HETATM    9  C   UNK     0      -5.182 -35.856   4.885  0.00  0.00     0.005 A 
HETATM   10  C   UNK     0      -6.227 -34.913   5.508  0.00  0.00     0.022 A 
ENDROOT
BRANCH   1  11
HETATM   11  O   UNK     0      -8.664 -34.490   0.780  0.00  0.00    -0.289 OA
BRANCH  11  12
HETATM   12  C   UNK     0      -9.011 -33.409  -0.259  0.00  0.00     0.225 C 
HETATM   13  O   UNK     0     -10.483 -33.037  -0.520  0.00  0.00    -0.164 OA
BRANCH  12  14
HETATM   14  C   UNK     0      -7.888 -32.699  -1.037  0.00  0.00     0.012 A 
HETATM   15  C   UNK     0      -6.496 -32.532  -0.399  0.00  0.00     0.085 A 
HETATM   16  C   UNK     0      -5.373 -31.822  -1.177  0.00  0.00     0.143 A 
HETATM   17  C   UNK     0      -5.641 -31.279  -2.593  0.00  0.00     0.132 A 
HETATM   18  F   UNK     0      -3.981 -31.656  -0.539  0.00  0.00    -0.207 F 
HETATM   19  C   UNK     0      -7.032 -31.446  -3.230  0.00  0.00     0.061 A 
HETATM   20  O   UNK     0      -4.518 -30.569  -3.371  0.00  0.00    -0.193 OA
HETATM   21  C   UNK     0      -8.156 -32.156  -2.452  0.00  0.00     0.034 A 
ENDBRANCH  12  14
ENDBRANCH  11  12
ENDBRANCH   1  11
BRANCH   5  22
HETATM   22  O   UNK     0     -10.582 -31.871   5.013  0.00  0.00    -0.311 OA
BRANCH  22  23
HETATM   23  C   UNK     0     -11.762 -32.451   5.814  0.00  0.00     0.221 C 
HETATM   24  O   UNK     0     -12.543 -33.661   5.267  0.00  0.00    -0.164 OA
BRANCH  23  25
HETATM   25  C   UNK     0     -12.162 -31.821   7.161  0.00  0.00     0.012 A 
HETATM   26  C   UNK     0     -13.640 -31.801   7.593  0.00  0.00     0.034 A 
HETATM   27  C   UNK     0     -14.040 -31.171   8.940  0.00  0.00     0.061 A 
HETATM   28  C   UNK     0     -12.961 -30.562   9.856  0.00  0.00     0.132 A 
HETATM   29  C   UNK     0     -11.483 -30.583   9.424  0.00  0.00     0.143 A 
HETATM   30  O   UNK     0     -13.361 -29.932  11.203  0.00  0.00    -0.193 OA
HETATM   31  C   UNK     0     -11.084 -31.212   8.077  0.00  0.00     0.085 A 
HETATM   32  F   UNK     0     -10.405 -29.973  10.339  0.00  0.00    -0.207 F 
ENDBRANCH  23  25
ENDBRANCH  22  23
ENDBRANCH   5  22
TORSDOF 6
ENDMDL
MODEL 5
REMARK VINA RESULT:      -8.9      3.802      6.191
REMARK  6 active torsions:
REMARK  status: ('A' for Active; 'I' for Inactive)
REMARK    1  A    between atoms: C_1  and  O_11 
REMARK    2  A    between atoms: C_5  and  O_12 
REMARK    3  A    between atoms: O_11  and  C_23 
REMARK    4  A    between atoms: O_12  and  C_13 
REMARK    5  A    between atoms: C_13  and  C_14 
REMARK    6  A    between atoms: C_23  and  C_24 
ROOT
HETATM    1  C   UNK     0      -8.587 -32.012   0.778  0.00  0.00     0.078 A 
HETATM    2  C   UNK     0     -10.016 -32.052   0.205  0.00  0.00    -0.011 A 
HETATM    3  C   UNK     0     -10.234 -32.091  -1.319  0.00  0.00    -0.044 A 
HETATM    4  C   UNK     0      -9.022 -32.089  -2.270  0.00  0.00     0.052 A 
HETATM    5  C   UNK     0      -7.594 -32.049  -1.697  0.00  0.00     0.134 A 
HETATM    6  C   UNK     0      -7.377 -32.010  -0.173  0.00  0.00     0.082 A 
HETATM    7  C   UNK     0     -11.228 -32.054   1.156  0.00  0.00     0.027 A 
HETATM    8  C   UNK     0     -12.656 -32.094   0.583  0.00  0.00     0.005 A 
HETATM    9  C   UNK     0     -12.874 -32.132  -0.941  0.00  0.00     0.005 A 
HETATM   10  C   UNK     0     -11.663 -32.131  -1.892  0.00  0.00     0.022 A 
ENDROOT
BRANCH   1  11
HETATM   11  O   UNK     0      -8.370 -31.974   2.302  0.00  0.00    -0.289 OA
BRANCH  11  12
HETATM   12  C   UNK     0      -8.544 -33.255   3.137  0.00  0.00     0.225 C 
HETATM   13  O   UNK     0      -9.537 -33.277   4.315  0.00  0.00    -0.164 OA
BRANCH  12  14
HETATM   14  C   UNK     0      -7.727 -34.514   2.796  0.00  0.00     0.012 A 
HETATM   15  C   UNK     0      -6.645 -35.018   3.770  0.00  0.00     0.085 A 
HETATM   16  C   UNK     0      -5.828 -36.277   3.429  0.00  0.00     0.143 A 
HETATM   17  C   UNK     0      -6.092 -37.034   2.113  0.00  0.00     0.132 A 
HETATM   18  F   UNK     0      -4.746 -36.780   4.403  0.00  0.00    -0.207 F 
HETATM   19  C   UNK     0      -7.174 -36.531   1.140  0.00  0.00     0.061 A 
HETATM   20  O   UNK     0      -5.275 -38.294   1.772  0.00  0.00    -0.193 OA
HETATM   21  C   UNK     0      -7.991 -35.271   1.482  0.00  0.00     0.034 A 
ENDBRANCH  12  14
ENDBRANCH  11  12
ENDBRANCH   1  11
BRANCH   5  22
HETATM   22  O   UNK     0      -6.383 -32.047  -2.648  0.00  0.00    -0.311 OA
BRANCH  22  23
HETATM   23  C   UNK     0      -5.802 -30.713  -3.153  0.00  0.00     0.221 C 
HETATM   24  O   UNK     0      -4.285 -30.458  -3.081  0.00  0.00    -0.164 OA
BRANCH  23  25
HETATM   25  C   UNK     0      -6.738 -29.635  -3.729  0.00  0.00     0.012 A 
HETATM   26  C   UNK     0      -7.145 -29.682  -5.213  0.00  0.00     0.034 A 
HETATM   27  C   UNK     0      -8.082 -28.603  -5.789  0.00  0.00     0.061 A 
HETATM   28  C   UNK     0      -8.611 -27.478  -4.881  0.00  0.00     0.132 A 
HETATM   29  C   UNK     0      -8.203 -27.431  -3.396  0.00  0.00     0.143 A 
HETATM   30  O   UNK     0      -9.547 -26.399  -5.457  0.00  0.00    -0.193 OA
HETATM   31  C   UNK     0      -7.267 -28.509  -2.821  0.00  0.00     0.085 A 
HETATM   32  F   UNK     0      -8.732 -26.305  -2.488  0.00  0.00    -0.207 F 
ENDBRANCH  23  25
ENDBRANCH  22  23
ENDBRANCH   5  22
TORSDOF 6
ENDMDL
MODEL 6
REMARK VINA RESULT:      -8.8      3.404      9.077
REMARK  6 active torsions:
REMARK  status: ('A' for Active; 'I' for Inactive)
REMARK    1  A    between atoms: C_1  and  O_11 
REMARK    2  A    between atoms: C_5  and  O_12 
REMARK    3  A    between atoms: O_11  and  C_23 
REMARK    4  A    between atoms: O_12  and  C_13 
REMARK    5  A    between atoms: C_13  and  C_14 
REMARK    6  A    between atoms: C_23  and  C_24 
ROOT
HETATM    1  C   UNK     0      -7.794 -31.219  -0.717  0.00  0.00     0.078 A 
HETATM    2  C   UNK     0      -8.234 -30.178  -1.763  0.00  0.00    -0.011 A 
HETATM    3  C   UNK     0      -9.727 -30.006  -2.098  0.00  0.00    -0.044 A 
HETATM    4  C   UNK     0     -10.780 -30.875  -1.386  0.00  0.00     0.052 A 
HETATM    5  C   UNK     0     -10.340 -31.916  -0.340  0.00  0.00     0.134 A 
HETATM    6  C   UNK     0      -8.847 -32.087  -0.006  0.00  0.00     0.082 A 
HETATM    7  C   UNK     0      -7.180 -29.308  -2.475  0.00  0.00     0.027 A 
HETATM    8  C   UNK     0      -7.620 -28.268  -3.521  0.00  0.00     0.005 A 
HETATM    9  C   UNK     0      -9.113 -28.096  -3.856  0.00  0.00     0.005 A 
HETATM   10  C   UNK     0     -10.167 -28.965  -3.145  0.00  0.00     0.022 A 
ENDROOT
BRANCH   1  11
HETATM   11  O   UNK     0      -6.300 -31.390  -0.382  0.00  0.00    -0.289 OA
BRANCH  11  12
HETATM   12  C   UNK     0      -5.528 -32.613  -0.911  0.00  0.00     0.225 C 
HETATM   13  O   UNK     0      -4.610 -32.471  -2.139  0.00  0.00    -0.164 OA
BRANCH  12  14
HETATM   14  C   UNK     0      -5.674 -33.977  -0.212  0.00  0.00     0.012 A 
HETATM   15  C   UNK     0      -5.905 -34.042   1.310  0.00  0.00     0.085 A 
HETATM   16  C   UNK     0      -6.051 -35.407   2.008  0.00  0.00     0.143 A 
HETATM   17  C   UNK     0      -5.966 -36.706   1.186  0.00  0.00     0.132 A 
HETATM   18  F   UNK     0      -6.282 -35.472   3.530  0.00  0.00    -0.207 F 
HETATM   19  C   UNK     0      -5.734 -36.641  -0.335  0.00  0.00     0.061 A 
HETATM   20  O   UNK     0      -6.111 -38.071   1.885  0.00  0.00    -0.193 OA
HETATM   21  C   UNK     0      -5.589 -35.276  -1.034  0.00  0.00     0.034 A 
ENDBRANCH  12  14
ENDBRANCH  11  12
ENDBRANCH   1  11
BRANCH   5  22
HETATM   22  O   UNK     0     -11.394 -32.785   0.371  0.00  0.00    -0.311 OA
BRANCH  22  23
HETATM   23  C   UNK     0     -10.948 -33.900   1.336  0.00  0.00     0.221 C 
HETATM   24  O   UNK     0     -10.842 -35.353   0.836  0.00  0.00    -0.164 OA
BRANCH  23  25
HETATM   25  C   UNK     0     -10.608 -33.562   2.799  0.00  0.00     0.012 A 
HETATM   26  C   UNK     0     -11.724 -33.134   3.770  0.00  0.00     0.034 A 
HETATM   27  C   UNK     0     -11.384 -32.795   5.233  0.00  0.00     0.061 A 
HETATM   28  C   UNK     0      -9.927 -32.885   5.726  0.00  0.00     0.132 A 
HETATM   29  C   UNK     0      -8.811 -33.313   4.755  0.00  0.00     0.143 A 
HETATM   30  O   UNK     0      -9.587 -32.547   7.189  0.00  0.00    -0.193 OA
HETATM   31  C   UNK     0      -9.151 -33.651   3.292  0.00  0.00     0.085 A 
HETATM   32  F   UNK     0      -7.355 -33.403   5.247  0.00  0.00    -0.207 F 
ENDBRANCH  23  25
ENDBRANCH  22  23
ENDBRANCH   5  22
TORSDOF 6
ENDMDL
MODEL 7
REMARK VINA RESULT:      -8.7      3.934      5.410
REMARK  6 active torsions:
REMARK  status: ('A' for Active; 'I' for Inactive)
REMARK    1  A    between atoms: C_1  and  O_11 
REMARK    2  A    between atoms: C_5  and  O_12 
REMARK    3  A    between atoms: O_11  and  C_23 
REMARK    4  A    between atoms: O_12  and  C_13 
REMARK    5  A    between atoms: C_13  and  C_14 
REMARK    6  A    between atoms: C_23  and  C_24 
ROOT
HETATM    1  C   UNK     0      -8.075 -33.018   0.923  0.00  0.00     0.078 A 
HETATM    2  C   UNK     0      -7.344 -34.349   0.666  0.00  0.00    -0.011 A 
HETATM    3  C   UNK     0      -6.163 -34.401  -0.321  0.00  0.00    -0.044 A 
HETATM    4  C   UNK     0      -5.714 -33.121  -1.052  0.00  0.00     0.052 A 
HETATM    5  C   UNK     0      -6.444 -31.791  -0.794  0.00  0.00     0.134 A 
HETATM    6  C   UNK     0      -7.625 -31.739   0.193  0.00  0.00     0.082 A 
HETATM    7  C   UNK     0      -7.794 -35.629   1.396  0.00  0.00     0.027 A 
HETATM    8  C   UNK     0      -7.063 -36.959   1.139  0.00  0.00     0.005 A 
HETATM    9  C   UNK     0      -5.882 -37.010   0.151  0.00  0.00     0.005 A 
HETATM   10  C   UNK     0      -5.432 -35.732  -0.579  0.00  0.00     0.022 A 
ENDROOT
BRANCH   1  11
HETATM   11  O   UNK     0      -9.256 -32.966   1.911  0.00  0.00    -0.289 OA
BRANCH  11  12
HETATM   12  C   UNK     0     -10.702 -32.993   1.384  0.00  0.00     0.225 C 
HETATM   13  O   UNK     0     -11.795 -32.171   2.092  0.00  0.00    -0.164 OA
BRANCH  12  14
HETATM   14  C   UNK     0     -11.056 -33.841   0.148  0.00  0.00     0.012 A 
HETATM   15  C   UNK     0     -11.253 -35.362   0.289  0.00  0.00     0.085 A 
HETATM   16  C   UNK     0     -11.607 -36.210  -0.947  0.00  0.00     0.143 A 
HETATM   17  C   UNK     0     -11.764 -35.538  -2.323  0.00  0.00     0.132 A 
HETATM   18  F   UNK     0     -11.804 -37.732  -0.805  0.00  0.00    -0.207 F 
HETATM   19  C   UNK     0     -11.568 -34.017  -2.464  0.00  0.00     0.061 A 
HETATM   20  O   UNK     0     -12.119 -36.386  -3.559  0.00  0.00    -0.193 OA
HETATM   21  C   UNK     0     -11.213 -33.169  -1.228  0.00  0.00     0.034 A 
ENDBRANCH  12  14
ENDBRANCH  11  12
ENDBRANCH   1  11
BRANCH   5  22
HETATM   22  O   UNK     0      -5.995 -30.511  -1.524  0.00  0.00    -0.311 OA
BRANCH  22  23
HETATM   23  C   UNK     0      -5.722 -30.545  -3.040  0.00  0.00     0.221 C 
HETATM   24  O   UNK     0      -4.353 -31.014  -3.566  0.00  0.00    -0.164 OA
BRANCH  23  25
HETATM   25  C   UNK     0      -6.820 -30.110  -4.029  0.00  0.00     0.012 A 
HETATM   26  C   UNK     0      -6.784 -28.700  -4.646  0.00  0.00     0.034 A 
HETATM   27  C   UNK     0      -7.881 -28.264  -5.636  0.00  0.00     0.061 A 
HETATM   28  C   UNK     0      -9.014 -29.239  -6.007  0.00  0.00     0.132 A 
HETATM   29  C   UNK     0      -9.050 -30.650  -5.389  0.00  0.00     0.143 A 
HETATM   30  O   UNK     0     -10.112 -28.804  -6.996  0.00  0.00    -0.193 OA
HETATM   31  C   UNK     0      -7.953 -31.085  -4.400  0.00  0.00     0.085 A 
HETATM   32  F   UNK     0     -10.182 -31.625  -5.760  0.00  0.00    -0.207 F 
ENDBRANCH  23  25
ENDBRANCH  22  23
ENDBRANCH   5  22
TORSDOF 6
ENDMDL
MODEL 8
REMARK VINA RESULT:      -8.6      1.662      2.108
REMARK  6 active torsions:
REMARK  status: ('A' for Active; 'I' for Inactive)
REMARK    1  A    between atoms: C_1  and  O_11 
REMARK    2  A    between atoms: C_5  and  O_12 
REMARK    3  A    between atoms: O_11  and  C_23 
REMARK    4  A    between atoms: O_12  and  C_13 
REMARK    5  A    between atoms: C_13  and  C_14 
REMARK    6  A    between atoms: C_23  and  C_24 
ROOT
HETATM    1  C   UNK     0      -8.709 -32.654   2.673  0.00  0.00     0.078 A 
HETATM    2  C   UNK     0      -7.795 -33.690   3.354  0.00  0.00    -0.011 A 
HETATM    3  C   UNK     0      -6.897 -34.604   2.500  0.00  0.00    -0.044 A 
HETATM    4  C   UNK     0      -6.913 -34.482   0.965  0.00  0.00     0.052 A 
HETATM    5  C   UNK     0      -7.827 -33.447   0.284  0.00  0.00     0.134 A 
HETATM    6  C   UNK     0      -8.725 -32.533   1.138  0.00  0.00     0.082 A 
HETATM    7  C   UNK     0      -7.779 -33.811   4.890  0.00  0.00     0.027 A 
HETATM    8  C   UNK     0      -6.865 -34.846   5.570  0.00  0.00     0.005 A 
HETATM    9  C   UNK     0      -5.967 -35.760   4.716  0.00  0.00     0.005 A 
HETATM   10  C   UNK     0      -5.982 -35.639   3.182  0.00  0.00     0.022 A 
ENDROOT
BRANCH   1  11
HETATM   11  O   UNK     0      -9.607 -31.740   3.527  0.00  0.00    -0.289 OA
BRANCH  11  12
HETATM   12  C   UNK     0     -11.102 -32.068   3.694  0.00  0.00     0.225 C 
HETATM   13  O   UNK     0     -11.971 -32.352   2.454  0.00  0.00    -0.164 OA
BRANCH  12  14
HETATM   14  C   UNK     0     -11.729 -32.111   5.100  0.00  0.00     0.012 A 
HETATM   15  C   UNK     0     -10.888 -32.575   6.304  0.00  0.00     0.085 A 
HETATM   16  C   UNK     0     -11.515 -32.618   7.710  0.00  0.00     0.143 A 
HETATM   17  C   UNK     0     -12.983 -32.199   7.912  0.00  0.00     0.132 A 
HETATM   18  F   UNK     0     -10.673 -33.082   8.914  0.00  0.00    -0.207 F 
HETATM   19  C   UNK     0     -13.823 -31.736   6.708  0.00  0.00     0.061 A 
HETATM   20  O   UNK     0     -13.610 -32.242   9.318  0.00  0.00    -0.193 OA
HETATM   21  C   UNK     0     -13.196 -31.692   5.302  0.00  0.00     0.034 A 
ENDBRANCH  12  14
ENDBRANCH  11  12
ENDBRANCH   1  11
BRANCH   5  22
HETATM   22  O   UNK     0      -7.843 -33.326  -1.251  0.00  0.00    -0.311 OA
BRANCH  22  23
HETATM   23  C   UNK     0      -6.636 -32.715  -1.988  0.00  0.00     0.221 C 
HETATM   24  O   UNK     0      -5.247 -33.367  -1.863  0.00  0.00    -0.164 OA
BRANCH  23  25
HETATM   25  C   UNK     0      -6.819 -31.451  -2.849  0.00  0.00     0.012 A 
HETATM   26  C   UNK     0      -7.586 -31.533  -4.182  0.00  0.00     0.034 A 
HETATM   27  C   UNK     0      -7.769 -30.269  -5.043  0.00  0.00     0.061 A 
HETATM   28  C   UNK     0      -7.185 -28.925  -4.571  0.00  0.00     0.132 A 
HETATM   29  C   UNK     0      -6.418 -28.843  -3.238  0.00  0.00     0.143 A 
HETATM   30  O   UNK     0      -7.368 -27.661  -5.433  0.00  0.00    -0.193 OA
HETATM   31  C   UNK     0      -6.236 -30.107  -2.377  0.00  0.00     0.085 A 
HETATM   32  F   UNK     0      -5.835 -27.499  -2.766  0.00  0.00    -0.207 F 
ENDBRANCH  23  25
ENDBRANCH  22  23
ENDBRANCH   5  22
TORSDOF 6
ENDMDL
MODEL 9
REMARK VINA RESULT:      -8.5     18.633     21.890
REMARK  6 active torsions:
REMARK  status: ('A' for Active; 'I' for Inactive)
REMARK    1  A    between atoms: C_1  and  O_11 
REMARK    2  A    between atoms: C_5  and  O_12 
REMARK    3  A    between atoms: O_11  and  C_23 
REMARK    4  A    between atoms: O_12  and  C_13 
REMARK    5  A    between atoms: C_13  and  C_14 
REMARK    6  A    between atoms: C_23  and  C_24 
ROOT
HETATM    1  C   UNK     0      -2.860 -43.288  19.518  0.00  0.00     0.078 A 
HETATM    2  C   UNK     0      -2.487 -43.084  18.038  0.00  0.00    -0.011 A 
HETATM    3  C   UNK     0      -3.229 -42.030  17.196  0.00  0.00    -0.044 A 
HETATM    4  C   UNK     0      -4.344 -41.180  17.834  0.00  0.00     0.052 A 
HETATM    5  C   UNK     0      -4.716 -41.384  19.313  0.00  0.00     0.134 A 
HETATM    6  C   UNK     0      -3.974 -42.439  20.156  0.00  0.00     0.082 A 
HETATM    7  C   UNK     0      -1.372 -43.934  17.400  0.00  0.00     0.027 A 
HETATM    8  C   UNK     0      -1.000 -43.730  15.920  0.00  0.00     0.005 A 
HETATM    9  C   UNK     0      -1.742 -42.675  15.078  0.00  0.00     0.005 A 
HETATM   10  C   UNK     0      -2.856 -41.826  15.715  0.00  0.00     0.022 A 
ENDROOT
BRANCH   1  11
HETATM   11  O   UNK     0      -2.118 -44.343  20.361  0.00  0.00    -0.289 OA
BRANCH  11  12
HETATM   12  C   UNK     0      -2.826 -45.652  20.754  0.00  0.00     0.225 C 
HETATM   13  O   UNK     0      -3.324 -45.854  22.197  0.00  0.00    -0.164 OA
BRANCH  12  14
HETATM   14  C   UNK     0      -3.036 -46.759  19.704  0.00  0.00     0.012 A 
HETATM   15  C   UNK     0      -1.828 -47.548  19.165  0.00  0.00     0.085 A 
HETATM   16  C   UNK     0      -2.038 -48.655  18.116  0.00  0.00     0.143 A 
HETATM   17  C   UNK     0      -3.456 -48.974  17.605  0.00  0.00     0.132 A 
HETATM   18  F   UNK     0      -0.830 -49.444  17.576  0.00  0.00    -0.207 F 
HETATM   19  C   UNK     0      -4.663 -48.185  18.145  0.00  0.00     0.061 A 
HETATM   20  O   UNK     0      -3.667 -50.081  16.556  0.00  0.00    -0.193 OA
HETATM   21  C   UNK     0      -4.453 -47.077  19.194  0.00  0.00     0.034 A 
ENDBRANCH  12  14
ENDBRANCH  11  12
ENDBRANCH   1  11
BRANCH   5  22
HETATM   22  O   UNK     0      -5.831 -40.535  19.952  0.00  0.00    -0.311 OA
BRANCH  22  23
HETATM   23  C   UNK     0      -6.214 -39.178  19.332  0.00  0.00     0.221 C 
HETATM   24  O   UNK     0      -7.453 -39.069  18.424  0.00  0.00    -0.164 OA
BRANCH  23  25
HETATM   25  C   UNK     0      -5.359 -37.930  19.622  0.00  0.00     0.012 A 
HETATM   26  C   UNK     0      -5.959 -36.525  19.432  0.00  0.00     0.034 A 
HETATM   27  C   UNK     0      -5.103 -35.277  19.721  0.00  0.00     0.061 A 
HETATM   28  C   UNK     0      -3.649 -35.435  20.201  0.00  0.00     0.132 A 
HETATM   29  C   UNK     0      -3.049 -36.841  20.391  0.00  0.00     0.143 A 
HETATM   30  O   UNK     0      -2.793 -34.187  20.490  0.00  0.00    -0.193 OA
HETATM   31  C   UNK     0      -3.904 -38.088  20.102  0.00  0.00     0.085 A 
HETATM   32  F   UNK     0      -1.594 -36.999  20.871  0.00  0.00    -0.207 F 
ENDBRANCH  23  25
ENDBRANCH  22  23
ENDBRANCH   5  22
TORSDOF 6
ENDMDL
