REMARK  6 active torsions:
REMARK  status: ('A' for Active; 'I' for Inactive)
REMARK    1  A    between atoms: C_8  and  O_12 
REMARK    2  A    between atoms: C_10  and  O_11 
REMARK    3  A    between atoms: O_11  and  C_23 
REMARK    4  A    between atoms: O_12  and  C_13 
REMARK    5  A    between atoms: C_13  and  C_14 
REMARK    6  A    between atoms: C_23  and  C_24 
ROOT
HETATM    1  C   UNK     0      -7.584   1.641   0.000  0.00  0.00     0.027 A 
HETATM    2  C   UNK     0      -8.918   0.871   0.000  0.00  0.00     0.005 A 
HETATM    3  C   UNK     0      -8.918  -0.669   0.000  0.00  0.00     0.005 A 
HETATM    4  C   UNK     0      -7.584  -1.439   0.000  0.00  0.00     0.022 A 
HETATM    5  C   UNK     0      -6.250  -0.669   0.000  0.00  0.00    -0.044 A 
HETATM    6  C   UNK     0      -6.250   0.871   0.000  0.00  0.00    -0.011 A 
HETATM    7  C   UNK     0      -4.917  -1.439   0.000  0.00  0.00     0.052 A 
HETATM    8  C   UNK     0      -3.583  -0.669   0.000  0.00  0.00     0.134 A 
HETATM    9  C   UNK     0      -3.583   0.871   0.000  0.00  0.00     0.082 A 
HETATM   10  C   UNK     0      -4.917   1.641   0.000  0.00  0.00     0.078 A 
ENDROOT
BRANCH  10  11
HETATM   11  O   UNK     0      -4.917   3.181   0.000  0.00  0.00    -0.289 OA
BRANCH  11  12
HETATM   12  C   UNK     0      -3.583   3.951   0.000  0.00  0.00     0.225 C 
HETATM   13  O   UNK     0      -2.249   3.181   0.000  0.00  0.00    -0.164 OA
BRANCH  12  14
HETATM   14  C   UNK     0      -3.583   5.491   0.000  0.00  0.00     0.012 A 
HETATM   15  C   UNK     0      -2.249   6.261   0.000  0.00  0.00     0.082 A 
HETATM   16  C   UNK     0      -2.249   7.801   0.000  0.00  0.00     0.136 A 
HETATM   17  C   UNK     0      -3.583   8.571   0.000  0.00  0.00     0.139 A 
HETATM   18  O   UNK     0      -0.915   8.571   0.000  0.00  0.00    -0.193 OA
HETATM   19  C   UNK     0      -4.916   7.801   0.000  0.00  0.00     0.063 A 
HETATM   20  F   UNK     0      -3.583  10.111   0.000  0.00  0.00    -0.207 F 
HETATM   21  C   UNK     0      -4.917   6.261   0.000  0.00  0.00     0.034 A 
ENDBRANCH  12  14
ENDBRANCH  11  12
ENDBRANCH  10  11
BRANCH   8  22
HETATM   22  O   UNK     0      -2.249  -1.439   0.000  0.00  0.00    -0.311 OA
BRANCH  22  23
HETATM   23  C   UNK     0      -0.916  -0.669   0.000  0.00  0.00     0.221 C 
HETATM   24  O   UNK     0      -0.916   0.871   0.000  0.00  0.00    -0.164 OA
BRANCH  23  25
HETATM   25  C   UNK     0       0.418  -1.439   0.000  0.00  0.00     0.012 A 
HETATM   26  C   UNK     0       1.752  -0.669   0.000  0.00  0.00     0.034 A 
HETATM   27  C   UNK     0       3.086  -1.439   0.000  0.00  0.00     0.063 A 
HETATM   28  C   UNK     0       3.086  -2.979   0.000  0.00  0.00     0.139 A 
HETATM   29  C   UNK     0       1.752  -3.749   0.000  0.00  0.00     0.136 A 
HETATM   30  F   UNK     0       4.419  -3.749   0.000  0.00  0.00    -0.207 F 
HETATM   31  C   UNK     0       0.418  -2.979   0.000  0.00  0.00     0.082 A 
HETATM   32  O   UNK     0       1.752  -5.289   0.000  0.00  0.00    -0.193 OA
ENDBRANCH  23  25
ENDBRANCH  22  23
ENDBRANCH   8  22
TORSDOF 6
