@<TRIPOS>MOLECULE
C:\Users\Ganatra\Desktop\Research Project\Vina5\Compound2\ligand.pdbqt
 32 35 0 0 0
SMALL
GASTEIGER

@<TRIPOS>ATOM
      1  C         -7.5840    1.6410    0.0000 C.ar    0  UNK0        0.0270
      2  C         -8.9180    0.8710    0.0000 C.ar    0  UNK0        0.0050
      3  C         -8.9180   -0.6690    0.0000 C.ar    0  UNK0        0.0050
      4  C         -7.5840   -1.4390    0.0000 C.ar    0  UNK0        0.0220
      5  C         -6.2500   -0.6690    0.0000 C.ar    0  UNK0       -0.0440
      6  C         -6.2500    0.8710    0.0000 C.ar    0  UNK0       -0.0110
      7  C         -4.9170   -1.4390    0.0000 C.ar    0  UNK0        0.0520
      8  C         -3.5830   -0.6690    0.0000 C.ar    0  UNK0        0.1340
      9  C         -3.5830    0.8710    0.0000 C.ar    0  UNK0        0.0820
     10  C         -4.9170    1.6410    0.0000 C.ar    0  UNK0        0.0780
     11  O         -4.9170    3.1810    0.0000 O.3     0  UNK0       -0.2890
     12  C         -3.5830    3.9510    0.0000 C.2     0  UNK0        0.2250
     13  O         -2.2490    3.1810    0.0000 O.2     0  UNK0       -0.1640
     14  C         -3.5830    5.4910    0.0000 C.ar    0  UNK0        0.0120
     15  C         -2.2490    6.2610    0.0000 C.ar    0  UNK0        0.0820
     16  C         -2.2490    7.8010    0.0000 C.ar    0  UNK0        0.1360
     17  C         -3.5830    8.5710    0.0000 C.ar    0  UNK0        0.1390
     18  O         -0.9150    8.5710    0.0000 O.3     0  UNK0       -0.1930
     19  C         -4.9160    7.8010    0.0000 C.ar    0  UNK0        0.0630
     20  F         -3.5830   10.1110    0.0000 F       0  UNK0       -0.2070
     21  C         -4.9170    6.2610    0.0000 C.ar    0  UNK0        0.0340
     22  O         -2.2490   -1.4390    0.0000 O.3     0  UNK0       -0.3110
     23  C         -0.9160   -0.6690    0.0000 C.2     0  UNK0        0.2210
     24  O         -0.9160    0.8710    0.0000 O.2     0  UNK0       -0.1640
     25  C          0.4180   -1.4390    0.0000 C.ar    0  UNK0        0.0120
     26  C          1.7520   -0.6690    0.0000 C.ar    0  UNK0        0.0340
     27  C          3.0860   -1.4390    0.0000 C.ar    0  UNK0        0.0630
     28  C          3.0860   -2.9790    0.0000 C.ar    0  UNK0        0.1390
     29  C          1.7520   -3.7490    0.0000 C.ar    0  UNK0        0.1360
     30  F          4.4190   -3.7490    0.0000 F       0  UNK0       -0.2070
     31  C          0.4180   -2.9790    0.0000 C.ar    0  UNK0        0.0820
     32  O          1.7520   -5.2890    0.0000 O.3     0  UNK0       -0.1930
@<TRIPOS>BOND
     1     1     2   ar
     2     1     6   ar
     3     2     3   ar
     4     3     4   ar
     5     4     5   ar
     6     5     6   ar
     7     5     7   ar
     8     6    10   ar
     9     7     8   ar
    10     8     9   ar
    11     8    22    1
    12     9    10   ar
    13    10    11    1
    14    11    12    1
    15    12    13    2
    16    12    14    1
    17    14    15   ar
    18    14    21   ar
    19    15    16   ar
    20    16    17   ar
    21    16    18    1
    22    17    19   ar
    23    17    20    1
    24    19    21   ar
    25    22    23    1
    26    23    24    2
    27    23    25    1
    28    25    26   ar
    29    25    31   ar
    30    26    27   ar
    31    27    28   ar
    32    28    29   ar
    33    28    30    1
    34    29    31   ar
    35    29    32    1
