REMARK  Name = 
REMARK                            x       y       z     vdW  Elec       q    Type
REMARK                         _______ _______ _______ _____ _____    ______ ____
ROOT
ATOM      1  C   LIG    1       -6.925 -35.189   1.574  0.00  0.00    +0.003 A 
ATOM      2  C   LIG    1       -7.540 -34.479   2.795  0.00  0.00    +0.035 A 
ATOM      3  C   LIG    1       -8.633 -33.414   2.596  0.00  0.00    +0.152 A 
ATOM     18  C   LIG    1       -9.248 -32.705   3.818  0.00  0.00    +0.075 A 
ATOM     19  C   LIG    1       -8.769 -33.061   5.237  0.00  0.00    +0.152 A 
ATOM     34  C   LIG    1       -7.675 -34.127   5.435  0.00  0.00    +0.038 A 
ATOM     35  C   LIG    1       -7.061 -34.836   4.214  0.00  0.00    +0.006 A 
ATOM     36  C   LIG    1       -5.967 -35.902   4.413  0.00  0.00    +0.000 A 
ATOM     37  C   LIG    1       -5.352 -36.611   3.191  0.00  0.00    +0.000 A 
ATOM     38  C   LIG    1       -5.831 -36.255   1.772  0.00  0.00    +0.000 A 
ENDROOT
BRANCH   3   4
ATOM      4  O   LIG    1       -9.113 -33.057   1.177  0.00  0.00    -0.421 OA
BRANCH   4   5
ATOM      5  C   LIG    1       -8.783 -31.677   0.577  0.00  0.00    +0.346 C 
ATOM     17  O   LIG    1       -9.590 -30.438   1.008  0.00  0.00    -0.244 OA
BRANCH   5   6
ATOM      6  C   LIG    1       -7.648 -31.537  -0.454  0.00  0.00    +0.076 A 
ATOM      7  C   LIG    1       -6.446 -32.500  -0.412  0.00  0.00    +0.010 A 
ATOM      8  C   LIG    1       -5.311 -32.359  -1.443  0.00  0.00    +0.042 A 
ATOM      9  C   LIG    1       -5.377 -31.256  -2.515  0.00  0.00    +0.200 A 
ATOM     10  O   LIG    1       -4.241 -31.115  -3.545  0.00  0.00    -0.287 OA
ATOM     11  C   LIG    1       -6.578 -30.293  -2.557  0.00  0.00    +0.110 A 
ATOM     16  C   LIG    1       -7.714 -30.433  -1.526  0.00  0.00    +0.014 A 
BRANCH  11  12
ATOM     12  C   LIG    1       -6.644 -29.190  -3.629  0.00  0.00    +0.422 C 
ATOM     13  F   LIG    1       -6.709 -28.086  -4.701  0.00  0.00    -0.166 F 
ATOM     14  F   LIG    1       -6.844 -29.565  -5.109  0.00  0.00    -0.166 F 
ATOM     15  F   LIG    1       -6.509 -27.711  -3.222  0.00  0.00    -0.166 F 
ENDBRANCH  11  12
ENDBRANCH   5   6
ENDBRANCH   4   5
ENDBRANCH   3   4
BRANCH  19  20
ATOM     20  O   LIG    1       -9.384 -32.352   6.458  0.00  0.00    -0.421 OA
BRANCH  20  21
ATOM     21  C   LIG    1      -10.899 -32.435   6.714  0.00  0.00    +0.346 C 
ATOM     33  O   LIG    1      -11.799 -33.240   5.757  0.00  0.00    -0.244 OA
BRANCH  21  22
ATOM     22  C   LIG    1      -11.516 -31.714   7.927  0.00  0.00    +0.076 A 
ATOM     23  C   LIG    1      -12.941 -32.069   8.391  0.00  0.00    +0.014 A 
ATOM     24  C   LIG    1      -13.558 -31.348   9.605  0.00  0.00    +0.110 A 
ATOM     29  C   LIG    1      -12.750 -30.272  10.354  0.00  0.00    +0.200 A 
ATOM     30  O   LIG    1      -13.367 -29.551  11.566  0.00  0.00    -0.287 OA
ATOM     31  C   LIG    1      -11.325 -29.917   9.890  0.00  0.00    +0.042 A 
ATOM     32  C   LIG    1      -10.708 -30.638   8.676  0.00  0.00    +0.010 A 
BRANCH  24  25
ATOM     25  C   LIG    1      -14.983 -31.703  10.069  0.00  0.00    +0.422 C 
ATOM     26  F   LIG    1      -15.190 -32.712  11.214  0.00  0.00    -0.166 F 
ATOM     27  F   LIG    1      -16.407 -32.058  10.533  0.00  0.00    -0.166 F 
ATOM     28  F   LIG    1      -16.200 -31.049   9.388  0.00  0.00    -0.166 F 
ENDBRANCH  24  25
ENDBRANCH  21  22
ENDBRANCH  20  21
ENDBRANCH  19  20
TORSDOF 8
