@<TRIPOS>MOLECULE
*****
 38 41 0 0 0
SMALL
GASTEIGER

@<TRIPOS>ATOM
      1  C         -6.9250  -35.1890    1.5740 C.ar    0  LIG0        0.0030
      2  C         -5.8310  -36.2550    1.7720 C.ar    0  LIG0        0.0001
      3  C         -5.3520  -36.6110    3.1910 C.ar    0  LIG0        0.0000
      4  C         -5.9670  -35.9020    4.4130 C.ar    0  LIG0        0.0002
      5  C         -7.0610  -34.8360    4.2140 C.ar    0  LIG0        0.0060
      6  C         -7.5400  -34.4790    2.7950 C.ar    0  LIG0        0.0349
      7  C         -7.6750  -34.1270    5.4350 C.ar    0  LIG0        0.0378
      8  C         -8.7690  -33.0610    5.2370 C.ar    0  LIG0        0.1518
      9  C         -9.2480  -32.7050    3.8180 C.ar    0  LIG0        0.0752
     10  C         -8.6330  -33.4140    2.5960 C.ar    0  LIG0        0.1517
     11  O         -9.1130  -33.0570    1.1770 O.3     0  LIG0       -0.4209
     12  C         -8.7830  -31.6770    0.5770 C.2     0  LIG0        0.3457
     13  O         -9.5900  -30.4380    1.0080 O.2     0  LIG0       -0.2445
     14  C         -7.6480  -31.5370   -0.4540 C.ar    0  LIG0        0.0762
     15  C         -7.7140  -30.4330   -1.5260 C.ar    0  LIG0        0.0135
     16  C         -6.5780  -30.2930   -2.5570 C.ar    0  LIG0        0.1104
     17  C         -5.3770  -31.2560   -2.5150 C.ar    0  LIG0        0.1996
     18  C         -5.3110  -32.3590   -1.4430 C.ar    0  LIG0        0.0422
     19  O         -4.2410  -31.1150   -3.5450 O.3     0  LIG0       -0.2866
     20  C         -6.4460  -32.5000   -0.4120 C.ar    0  LIG0        0.0097
     21  C         -6.6440  -29.1900   -3.6290 C.3     0  LIG0        0.4215
     22  F         -6.5090  -27.7110   -3.2220 F       0  LIG0       -0.1657
     23  F         -6.8440  -29.5650   -5.1090 F       0  LIG0       -0.1657
     24  F         -6.7090  -28.0860   -4.7010 F       0  LIG0       -0.1657
     25  O         -9.3840  -32.3520    6.4580 O.3     0  LIG0       -0.4209
     26  C        -10.8990  -32.4350    6.7140 C.2     0  LIG0        0.3457
     27  O        -11.7990  -33.2400    5.7570 O.2     0  LIG0       -0.2445
     28  C        -11.5160  -31.7140    7.9270 C.ar    0  LIG0        0.0762
     29  C        -10.7080  -30.6380    8.6760 C.ar    0  LIG0        0.0097
     30  C        -11.3250  -29.9170    9.8900 C.ar    0  LIG0        0.0422
     31  C        -12.7500  -30.2720   10.3540 C.ar    0  LIG0        0.1996
     32  C        -13.5580  -31.3480    9.6050 C.ar    0  LIG0        0.1104
     33  O        -13.3670  -29.5510   11.5660 O.3     0  LIG0       -0.2866
     34  C        -12.9410  -32.0690    8.3910 C.ar    0  LIG0        0.0135
     35  C        -14.9830  -31.7030   10.0690 C.3     0  LIG0        0.4215
     36  F        -16.2000  -31.0490    9.3880 F       0  LIG0       -0.1657
     37  F        -16.4070  -32.0580   10.5330 F       0  LIG0       -0.1657
     38  F        -15.1900  -32.7120   11.2140 F       0  LIG0       -0.1657
@<TRIPOS>BOND
     1     1     2   ar
     2     1     6   ar
     3     2     3   ar
     4     3     4   ar
     5     4     5   ar
     6     5     6   ar
     7     5     7   ar
     8     6    10   ar
     9     7     8   ar
    10     8     9   ar
    11     8    25    1
    12     9    10   ar
    13    10    11    1
    14    11    12    1
    15    12    13    2
    16    12    14    1
    17    14    15   ar
    18    14    20   ar
    19    15    16   ar
    20    16    17   ar
    21    16    21    1
    22    17    18   ar
    23    17    19    1
    24    18    20   ar
    25    21    22    1
    26    21    23    1
    27    21    24    1
    28    25    26    1
    29    26    27    2
    30    26    28    1
    31    28    29   ar
    32    28    34   ar
    33    29    30   ar
    34    30    31   ar
    35    31    32   ar
    36    31    33    1
    37    32    34   ar
    38    32    35    1
    39    35    36    1
    40    35    37    1
    41    35    38    1
