MODEL 1
REMARK VINA RESULT:      -9.7      0.000      0.000
REMARK  8 active torsions:
REMARK  status: ('A' for Active; 'I' for Inactive)
REMARK    1  A    between atoms: C_8  and  O_12 
REMARK    2  A    between atoms: C_10  and  O_11 
REMARK    3  A    between atoms: O_11  and  C_23 
REMARK    4  A    between atoms: O_12  and  C_13 
REMARK    5  A    between atoms: C_13  and  C_14 
REMARK    6  A    between atoms: C_18  and  C_21 
REMARK    7  A    between atoms: C_23  and  C_24 
REMARK    8  A    between atoms: C_26  and  C_31 
ROOT
HETATM    1  C   UNK     0      -6.925 -35.189   1.574  0.00  0.00     0.027 A 
HETATM    2  C   UNK     0      -5.831 -36.255   1.772  0.00  0.00     0.005 A 
HETATM    3  C   UNK     0      -5.352 -36.611   3.191  0.00  0.00     0.005 A 
HETATM    4  C   UNK     0      -5.967 -35.902   4.413  0.00  0.00     0.022 A 
HETATM    5  C   UNK     0      -7.061 -34.836   4.214  0.00  0.00    -0.044 A 
HETATM    6  C   UNK     0      -7.540 -34.479   2.795  0.00  0.00    -0.011 A 
HETATM    7  C   UNK     0      -7.675 -34.127   5.435  0.00  0.00     0.052 A 
HETATM    8  C   UNK     0      -8.769 -33.061   5.237  0.00  0.00     0.134 A 
HETATM    9  C   UNK     0      -9.248 -32.705   3.818  0.00  0.00     0.082 A 
HETATM   10  C   UNK     0      -8.633 -33.414   2.596  0.00  0.00     0.078 A 
ENDROOT
BRANCH  10  11
HETATM   11  O   UNK     0      -9.113 -33.057   1.177  0.00  0.00    -0.289 OA
BRANCH  11  12
HETATM   12  C   UNK     0      -8.783 -31.677   0.577  0.00  0.00     0.225 C 
HETATM   13  O   UNK     0      -9.590 -30.438   1.008  0.00  0.00    -0.164 OA
BRANCH  12  14
HETATM   14  C   UNK     0      -7.648 -31.537  -0.454  0.00  0.00     0.010 A 
HETATM   15  C   UNK     0      -7.714 -30.433  -1.526  0.00  0.00     0.058 A 
HETATM   16  C   UNK     0      -6.578 -30.293  -2.557  0.00  0.00     0.075 A 
HETATM   17  C   UNK     0      -5.377 -31.256  -2.515  0.00  0.00     0.109 A 
HETATM   18  C   UNK     0      -5.311 -32.359  -1.443  0.00  0.00     0.058 A 
HETATM   19  O   UNK     0      -4.241 -31.115  -3.545  0.00  0.00    -0.195 OA
HETATM   20  C   UNK     0      -6.446 -32.500  -0.412  0.00  0.00     0.033 A 
BRANCH  16  21
HETATM   21  C   UNK     0      -6.644 -29.190  -3.629  0.00  0.00     0.417 C 
HETATM   22  F   UNK     0      -6.509 -27.711  -3.222  0.00  0.00    -0.166 F 
HETATM   23  F   UNK     0      -6.844 -29.565  -5.109  0.00  0.00    -0.166 F 
HETATM   24  F   UNK     0      -6.709 -28.086  -4.701  0.00  0.00    -0.166 F 
ENDBRANCH  16  21
ENDBRANCH  12  14
ENDBRANCH  11  12
ENDBRANCH  10  11
BRANCH   8  25
HETATM   25  O   UNK     0      -9.384 -32.352   6.458  0.00  0.00    -0.311 OA
BRANCH  25  26
HETATM   26  C   UNK     0     -10.899 -32.435   6.714  0.00  0.00     0.221 C 
HETATM   27  O   UNK     0     -11.799 -33.240   5.757  0.00  0.00    -0.164 OA
BRANCH  26  28
HETATM   28  C   UNK     0     -11.516 -31.714   7.927  0.00  0.00     0.009 A 
HETATM   29  C   UNK     0     -10.708 -30.638   8.676  0.00  0.00     0.033 A 
HETATM   30  C   UNK     0     -11.325 -29.917   9.890  0.00  0.00     0.058 A 
HETATM   31  C   UNK     0     -12.750 -30.272  10.354  0.00  0.00     0.109 A 
HETATM   32  C   UNK     0     -13.558 -31.348   9.605  0.00  0.00     0.075 A 
HETATM   33  O   UNK     0     -13.367 -29.551  11.566  0.00  0.00    -0.195 OA
HETATM   34  C   UNK     0     -12.941 -32.069   8.391  0.00  0.00     0.058 A 
BRANCH  32  35
HETATM   35  C   UNK     0     -14.983 -31.703  10.069  0.00  0.00     0.417 C 
HETATM   36  F   UNK     0     -16.200 -31.049   9.388  0.00  0.00    -0.166 F 
HETATM   37  F   UNK     0     -16.407 -32.058  10.533  0.00  0.00    -0.166 F 
HETATM   38  F   UNK     0     -15.190 -32.712  11.214  0.00  0.00    -0.166 F 
ENDBRANCH  32  35
ENDBRANCH  26  28
ENDBRANCH  25  26
ENDBRANCH   8  25
TORSDOF 8
ENDMDL
MODEL 2
REMARK VINA RESULT:      -9.6      5.454     10.374
REMARK  8 active torsions:
REMARK  status: ('A' for Active; 'I' for Inactive)
REMARK    1  A    between atoms: C_8  and  O_12 
REMARK    2  A    between atoms: C_10  and  O_11 
REMARK    3  A    between atoms: O_11  and  C_23 
REMARK    4  A    between atoms: O_12  and  C_13 
REMARK    5  A    between atoms: C_13  and  C_14 
REMARK    6  A    between atoms: C_18  and  C_21 
REMARK    7  A    between atoms: C_23  and  C_24 
REMARK    8  A    between atoms: C_26  and  C_31 
ROOT
HETATM    1  C   UNK     0     -11.867 -32.750  -0.122  0.00  0.00     0.027 A 
HETATM    2  C   UNK     0     -12.840 -33.134  -1.252  0.00  0.00     0.005 A 
HETATM    3  C   UNK     0     -12.366 -33.114  -2.717  0.00  0.00     0.005 A 
HETATM    4  C   UNK     0     -10.918 -32.709  -3.052  0.00  0.00     0.022 A 
HETATM    5  C   UNK     0      -9.944 -32.325  -1.922  0.00  0.00    -0.044 A 
HETATM    6  C   UNK     0     -10.419 -32.345  -0.457  0.00  0.00    -0.011 A 
HETATM    7  C   UNK     0      -8.497 -31.920  -2.257  0.00  0.00     0.052 A 
HETATM    8  C   UNK     0      -7.524 -31.536  -1.126  0.00  0.00     0.134 A 
HETATM    9  C   UNK     0      -7.998 -31.557   0.339  0.00  0.00     0.082 A 
HETATM   10  C   UNK     0      -9.446 -31.961   0.673  0.00  0.00     0.078 A 
ENDROOT
BRANCH  10  11
HETATM   11  O   UNK     0      -9.921 -31.982   2.138  0.00  0.00    -0.289 OA
BRANCH  11  12
HETATM   12  C   UNK     0      -9.754 -33.259   2.984  0.00  0.00     0.225 C 
HETATM   13  O   UNK     0     -10.683 -33.514   4.186  0.00  0.00    -0.164 OA
BRANCH  12  14
HETATM   14  C   UNK     0      -8.658 -34.280   2.627  0.00  0.00     0.010 A 
HETATM   15  C   UNK     0      -7.411 -34.416   3.521  0.00  0.00     0.058 A 
HETATM   16  C   UNK     0      -6.316 -35.437   3.165  0.00  0.00     0.075 A 
HETATM   17  C   UNK     0      -6.467 -36.324   1.914  0.00  0.00     0.109 A 
HETATM   18  C   UNK     0      -7.713 -36.188   1.021  0.00  0.00     0.058 A 
HETATM   19  O   UNK     0      -5.371 -37.345   1.558  0.00  0.00    -0.195 OA
HETATM   20  C   UNK     0      -8.809 -35.166   1.376  0.00  0.00     0.033 A 
BRANCH  16  21
HETATM   21  C   UNK     0      -5.069 -35.573   4.059  0.00  0.00     0.417 C 
HETATM   22  F   UNK     0      -4.079 -34.400   4.183  0.00  0.00    -0.166 F 
HETATM   23  F   UNK     0      -4.813 -36.881   4.829  0.00  0.00    -0.166 F 
HETATM   24  F   UNK     0      -3.823 -35.708   4.953  0.00  0.00    -0.166 F 
ENDBRANCH  16  21
ENDBRANCH  12  14
ENDBRANCH  11  12
ENDBRANCH  10  11
BRANCH   8  25
HETATM   25  O   UNK     0      -6.076 -31.131  -1.461  0.00  0.00    -0.311 OA
BRANCH  25  26
HETATM   26  C   UNK     0      -5.745 -30.522  -2.836  0.00  0.00     0.221 C 
HETATM   27  O   UNK     0      -4.446 -30.917  -3.561  0.00  0.00    -0.164 OA
BRANCH  26  28
HETATM   28  C   UNK     0      -6.715 -29.517  -3.486  0.00  0.00     0.009 A 
HETATM   29  C   UNK     0      -6.806 -29.417  -5.020  0.00  0.00     0.033 A 
HETATM   30  C   UNK     0      -7.776 -28.412  -5.670  0.00  0.00     0.058 A 
HETATM   31  C   UNK     0      -8.653 -27.507  -4.786  0.00  0.00     0.109 A 
HETATM   32  C   UNK     0      -8.562 -27.607  -3.251  0.00  0.00     0.075 A 
HETATM   33  O   UNK     0      -9.622 -26.502  -5.435  0.00  0.00    -0.195 OA
HETATM   34  C   UNK     0      -7.592 -28.612  -2.601  0.00  0.00     0.058 A 
BRANCH  32  35
HETATM   35  C   UNK     0      -9.439 -26.701  -2.367  0.00  0.00     0.417 C 
HETATM   36  F   UNK     0      -8.784 -25.771  -1.329  0.00  0.00    -0.166 F 
HETATM   37  F   UNK     0     -10.317 -25.796  -1.483  0.00  0.00    -0.166 F 
HETATM   38  F   UNK     0     -10.971 -26.726  -2.521  0.00  0.00    -0.166 F 
ENDBRANCH  32  35
ENDBRANCH  26  28
ENDBRANCH  25  26
ENDBRANCH   8  25
TORSDOF 8
ENDMDL
MODEL 3
REMARK VINA RESULT:      -9.6      5.894     10.293
REMARK  8 active torsions:
REMARK  status: ('A' for Active; 'I' for Inactive)
REMARK    1  A    between atoms: C_8  and  O_12 
REMARK    2  A    between atoms: C_10  and  O_11 
REMARK    3  A    between atoms: O_11  and  C_23 
REMARK    4  A    between atoms: O_12  and  C_13 
REMARK    5  A    between atoms: C_13  and  C_14 
REMARK    6  A    between atoms: C_18  and  C_21 
REMARK    7  A    between atoms: C_23  and  C_24 
REMARK    8  A    between atoms: C_26  and  C_31 
ROOT
HETATM    1  C   UNK     0     -12.077 -36.988  -0.017  0.00  0.00     0.027 A 
HETATM    2  C   UNK     0     -12.453 -38.266  -0.791  0.00  0.00     0.005 A 
HETATM    3  C   UNK     0     -12.658 -38.210  -2.316  0.00  0.00     0.005 A 
HETATM    4  C   UNK     0     -12.485 -36.876  -3.068  0.00  0.00     0.022 A 
HETATM    5  C   UNK     0     -12.108 -35.599  -2.294  0.00  0.00    -0.044 A 
HETATM    6  C   UNK     0     -11.904 -35.655  -0.769  0.00  0.00    -0.011 A 
HETATM    7  C   UNK     0     -11.936 -34.267  -3.045  0.00  0.00     0.052 A 
HETATM    8  C   UNK     0     -11.559 -32.989  -2.272  0.00  0.00     0.134 A 
HETATM    9  C   UNK     0     -11.355 -33.045  -0.746  0.00  0.00     0.082 A 
HETATM   10  C   UNK     0     -11.527 -34.379   0.005  0.00  0.00     0.078 A 
ENDROOT
BRANCH  10  11
HETATM   11  O   UNK     0     -11.323 -34.435   1.531  0.00  0.00    -0.289 OA
BRANCH  11  12
HETATM   12  C   UNK     0      -9.996 -33.954   2.148  0.00  0.00     0.225 C 
HETATM   13  O   UNK     0      -9.971 -32.696   3.036  0.00  0.00    -0.164 OA
BRANCH  12  14
HETATM   14  C   UNK     0      -8.695 -34.731   1.877  0.00  0.00     0.010 A 
HETATM   15  C   UNK     0      -7.602 -34.805   2.961  0.00  0.00     0.058 A 
HETATM   16  C   UNK     0      -6.301 -35.582   2.690  0.00  0.00     0.075 A 
HETATM   17  C   UNK     0      -6.091 -36.286   1.336  0.00  0.00     0.109 A 
HETATM   18  C   UNK     0      -7.184 -36.212   0.254  0.00  0.00     0.058 A 
HETATM   19  O   UNK     0      -4.790 -37.063   1.065  0.00  0.00    -0.195 OA
HETATM   20  C   UNK     0      -8.486 -35.435   0.523  0.00  0.00     0.033 A 
BRANCH  16  21
HETATM   21  C   UNK     0      -5.208 -35.655   3.773  0.00  0.00     0.417 C 
HETATM   22  F   UNK     0      -4.180 -34.517   3.908  0.00  0.00    -0.166 F 
HETATM   23  F   UNK     0      -5.144 -36.867   4.721  0.00  0.00    -0.166 F 
HETATM   24  F   UNK     0      -4.116 -35.728   4.856  0.00  0.00    -0.166 F 
ENDBRANCH  16  21
ENDBRANCH  12  14
ENDBRANCH  11  12
ENDBRANCH  10  11
BRANCH   8  25
HETATM   25  O   UNK     0     -11.386 -31.656  -3.023  0.00  0.00    -0.311 OA
BRANCH  25  26
HETATM   26  C   UNK     0     -10.356 -31.542  -4.162  0.00  0.00     0.221 C 
HETATM   27  O   UNK     0     -10.806 -31.700  -5.626  0.00  0.00    -0.164 OA
BRANCH  26  28
HETATM   28  C   UNK     0      -8.876 -31.269  -3.836  0.00  0.00     0.009 A 
HETATM   29  C   UNK     0      -8.116 -30.155  -4.580  0.00  0.00     0.033 A 
HETATM   30  C   UNK     0      -6.635 -29.882  -4.254  0.00  0.00     0.058 A 
HETATM   31  C   UNK     0      -5.914 -30.725  -3.185  0.00  0.00     0.109 A 
HETATM   32  C   UNK     0      -6.674 -31.839  -2.442  0.00  0.00     0.075 A 
HETATM   33  O   UNK     0      -4.435 -30.453  -2.860  0.00  0.00    -0.195 OA
HETATM   34  C   UNK     0      -8.155 -32.112  -2.767  0.00  0.00     0.058 A 
BRANCH  32  35
HETATM   35  C   UNK     0      -5.953 -32.682  -1.373  0.00  0.00     0.417 C 
HETATM   36  F   UNK     0      -6.329 -32.526   0.112  0.00  0.00    -0.166 F 
HETATM   37  F   UNK     0      -5.232 -33.524  -0.304  0.00  0.00    -0.166 F 
HETATM   38  F   UNK     0      -4.856 -33.680  -1.790  0.00  0.00    -0.166 F 
ENDBRANCH  32  35
ENDBRANCH  26  28
ENDBRANCH  25  26
ENDBRANCH   8  25
TORSDOF 8
ENDMDL
MODEL 4
REMARK VINA RESULT:      -9.5      2.172     11.190
REMARK  8 active torsions:
REMARK  status: ('A' for Active; 'I' for Inactive)
REMARK    1  A    between atoms: C_8  and  O_12 
REMARK    2  A    between atoms: C_10  and  O_11 
REMARK    3  A    between atoms: O_11  and  C_23 
REMARK    4  A    between atoms: O_12  and  C_13 
REMARK    5  A    between atoms: C_13  and  C_14 
REMARK    6  A    between atoms: C_18  and  C_21 
REMARK    7  A    between atoms: C_23  and  C_24 
REMARK    8  A    between atoms: C_26  and  C_31 
ROOT
HETATM    1  C   UNK     0      -7.220 -34.245   5.458  0.00  0.00     0.027 A 
HETATM    2  C   UNK     0      -5.991 -35.114   5.783  0.00  0.00     0.005 A 
HETATM    3  C   UNK     0      -5.339 -35.969   4.680  0.00  0.00     0.005 A 
HETATM    4  C   UNK     0      -5.917 -35.955   3.252  0.00  0.00     0.022 A 
HETATM    5  C   UNK     0      -7.147 -35.086   2.928  0.00  0.00    -0.044 A 
HETATM    6  C   UNK     0      -7.799 -34.231   4.031  0.00  0.00    -0.011 A 
HETATM    7  C   UNK     0      -7.725 -35.072   1.501  0.00  0.00     0.052 A 
HETATM    8  C   UNK     0      -8.955 -34.204   1.177  0.00  0.00     0.134 A 
HETATM    9  C   UNK     0      -9.606 -33.349   2.280  0.00  0.00     0.082 A 
HETATM   10  C   UNK     0      -9.028 -33.363   3.707  0.00  0.00     0.078 A 
ENDROOT
BRANCH  10  11
HETATM   11  O   UNK     0      -9.679 -32.508   4.810  0.00  0.00    -0.289 OA
BRANCH  11  12
HETATM   12  C   UNK     0     -11.141 -32.765   5.221  0.00  0.00     0.225 C 
HETATM   13  O   UNK     0     -12.071 -33.574   4.296  0.00  0.00    -0.164 OA
BRANCH  12  14
HETATM   14  C   UNK     0     -11.674 -32.214   6.556  0.00  0.00     0.010 A 
HETATM   15  C   UNK     0     -10.775 -31.326   7.436  0.00  0.00     0.058 A 
HETATM   16  C   UNK     0     -11.307 -30.774   8.772  0.00  0.00     0.075 A 
HETATM   17  C   UNK     0     -12.740 -31.111   9.227  0.00  0.00     0.109 A 
HETATM   18  C   UNK     0     -13.639 -31.998   8.348  0.00  0.00     0.058 A 
HETATM   19  O   UNK     0     -13.273 -30.559  10.563  0.00  0.00    -0.195 OA
HETATM   20  C   UNK     0     -13.107 -32.550   7.012  0.00  0.00     0.033 A 
BRANCH  16  21
HETATM   21  C   UNK     0     -10.408 -29.886   9.652  0.00  0.00     0.417 C 
HETATM   22  F   UNK     0      -9.998 -28.483   9.165  0.00  0.00    -0.166 F 
HETATM   23  F   UNK     0      -9.919 -30.400  11.018  0.00  0.00    -0.166 F 
HETATM   24  F   UNK     0      -9.509 -28.998  10.531  0.00  0.00    -0.166 F 
ENDBRANCH  16  21
ENDBRANCH  12  14
ENDBRANCH  11  12
ENDBRANCH  10  11
BRANCH   8  25
HETATM   25  O   UNK     0      -9.533 -34.190  -0.251  0.00  0.00    -0.311 OA
BRANCH  25  26
HETATM   26  C   UNK     0      -9.561 -32.879  -1.057  0.00  0.00     0.221 C 
HETATM   27  O   UNK     0     -10.888 -32.124  -1.255  0.00  0.00    -0.164 OA
BRANCH  26  28
HETATM   28  C   UNK     0      -8.260 -32.323  -1.667  0.00  0.00     0.009 A 
HETATM   29  C   UNK     0      -6.905 -32.959  -1.303  0.00  0.00     0.033 A 
HETATM   30  C   UNK     0      -5.604 -32.402  -1.912  0.00  0.00     0.058 A 
HETATM   31  C   UNK     0      -5.658 -31.210  -2.885  0.00  0.00     0.109 A 
HETATM   32  C   UNK     0      -7.013 -30.574  -3.249  0.00  0.00     0.075 A 
HETATM   33  O   UNK     0      -4.359 -30.654  -3.494  0.00  0.00    -0.195 OA
HETATM   34  C   UNK     0      -8.314 -31.130  -2.640  0.00  0.00     0.058 A 
BRANCH  32  35
HETATM   35  C   UNK     0      -7.067 -29.381  -4.222  0.00  0.00     0.417 C 
HETATM   36  F   UNK     0      -7.611 -28.022  -3.744  0.00  0.00    -0.166 F 
HETATM   37  F   UNK     0      -7.121 -28.189  -5.195  0.00  0.00    -0.166 F 
HETATM   38  F   UNK     0      -6.578 -29.548  -5.672  0.00  0.00    -0.166 F 
ENDBRANCH  32  35
ENDBRANCH  26  28
ENDBRANCH  25  26
ENDBRANCH   8  25
TORSDOF 8
ENDMDL
MODEL 5
REMARK VINA RESULT:      -9.3      5.199      9.802
REMARK  8 active torsions:
REMARK  status: ('A' for Active; 'I' for Inactive)
REMARK    1  A    between atoms: C_8  and  O_12 
REMARK    2  A    between atoms: C_10  and  O_11 
REMARK    3  A    between atoms: O_11  and  C_23 
REMARK    4  A    between atoms: O_12  and  C_13 
REMARK    5  A    between atoms: C_13  and  C_14 
REMARK    6  A    between atoms: C_18  and  C_21 
REMARK    7  A    between atoms: C_23  and  C_24 
REMARK    8  A    between atoms: C_26  and  C_31 
ROOT
HETATM    1  C   UNK     0      -8.222 -35.459   1.122  0.00  0.00     0.027 A 
HETATM    2  C   UNK     0      -7.532 -36.833   1.041  0.00  0.00     0.005 A 
HETATM    3  C   UNK     0      -6.167 -36.970   0.340  0.00  0.00     0.005 A 
HETATM    4  C   UNK     0      -5.492 -35.731  -0.278  0.00  0.00     0.022 A 
HETATM    5  C   UNK     0      -6.182 -34.356  -0.196  0.00  0.00    -0.044 A 
HETATM    6  C   UNK     0      -7.547 -34.220   0.504  0.00  0.00    -0.011 A 
HETATM    7  C   UNK     0      -5.507 -33.119  -0.815  0.00  0.00     0.052 A 
HETATM    8  C   UNK     0      -6.197 -31.744  -0.733  0.00  0.00     0.134 A 
HETATM    9  C   UNK     0      -7.561 -31.608  -0.033  0.00  0.00     0.082 A 
HETATM   10  C   UNK     0      -8.237 -32.846   0.586  0.00  0.00     0.078 A 
ENDROOT
BRANCH  10  11
HETATM   11  O   UNK     0      -9.601 -32.710   1.286  0.00  0.00    -0.289 OA
BRANCH  11  12
HETATM   12  C   UNK     0      -9.803 -31.643   2.378  0.00  0.00     0.225 C 
HETATM   13  O   UNK     0      -9.460 -31.967   3.845  0.00  0.00    -0.164 OA
BRANCH  12  14
HETATM   14  C   UNK     0     -10.348 -30.252   2.004  0.00  0.00     0.010 A 
HETATM   15  C   UNK     0      -9.839 -29.001   2.744  0.00  0.00     0.058 A 
HETATM   16  C   UNK     0     -10.383 -27.610   2.370  0.00  0.00     0.075 A 
HETATM   17  C   UNK     0     -11.438 -27.470   1.256  0.00  0.00     0.109 A 
HETATM   18  C   UNK     0     -11.947 -28.721   0.517  0.00  0.00     0.058 A 
HETATM   19  O   UNK     0     -11.983 -26.079   0.883  0.00  0.00    -0.195 OA
HETATM   20  C   UNK     0     -11.403 -30.112   0.890  0.00  0.00     0.033 A 
BRANCH  16  21
HETATM   21  C   UNK     0      -9.874 -26.359   3.111  0.00  0.00     0.417 C 
HETATM   22  F   UNK     0     -10.868 -25.271   3.559  0.00  0.00    -0.166 F 
HETATM   23  F   UNK     0      -8.371 -26.196   3.402  0.00  0.00    -0.166 F 
HETATM   24  F   UNK     0      -9.365 -25.108   3.850  0.00  0.00    -0.166 F 
ENDBRANCH  16  21
ENDBRANCH  12  14
ENDBRANCH  11  12
ENDBRANCH  10  11
BRANCH   8  25
HETATM   25  O   UNK     0      -5.521 -30.505  -1.351  0.00  0.00    -0.311 OA
BRANCH  25  26
HETATM   26  C   UNK     0      -5.492 -30.327  -2.880  0.00  0.00     0.221 C 
HETATM   27  O   UNK     0      -4.414 -31.040  -3.718  0.00  0.00    -0.164 OA
BRANCH  26  28
HETATM   28  C   UNK     0      -6.541 -29.437  -3.572  0.00  0.00     0.009 A 
HETATM   29  C   UNK     0      -6.598 -29.366  -5.110  0.00  0.00     0.033 A 
HETATM   30  C   UNK     0      -7.647 -28.475  -5.802  0.00  0.00     0.058 A 
HETATM   31  C   UNK     0      -8.639 -27.655  -4.956  0.00  0.00     0.109 A 
HETATM   32  C   UNK     0      -8.582 -27.726  -3.418  0.00  0.00     0.075 A 
HETATM   33  O   UNK     0      -9.688 -26.765  -5.647  0.00  0.00    -0.195 OA
HETATM   34  C   UNK     0      -7.533 -28.617  -2.726  0.00  0.00     0.058 A 
BRANCH  32  35
HETATM   35  C   UNK     0      -9.574 -26.906  -2.572  0.00  0.00     0.417 C 
HETATM   36  F   UNK     0     -11.083 -26.973  -2.876  0.00  0.00    -0.166 F 
HETATM   37  F   UNK     0     -10.566 -26.087  -1.727  0.00  0.00    -0.166 F 
HETATM   38  F   UNK     0      -9.058 -26.020  -1.423  0.00  0.00    -0.166 F 
ENDBRANCH  32  35
ENDBRANCH  26  28
ENDBRANCH  25  26
ENDBRANCH   8  25
TORSDOF 8
ENDMDL
MODEL 6
REMARK VINA RESULT:      -9.3      4.384      5.538
REMARK  8 active torsions:
REMARK  status: ('A' for Active; 'I' for Inactive)
REMARK    1  A    between atoms: C_8  and  O_12 
REMARK    2  A    between atoms: C_10  and  O_11 
REMARK    3  A    between atoms: O_11  and  C_23 
REMARK    4  A    between atoms: O_12  and  C_13 
REMARK    5  A    between atoms: C_13  and  C_14 
REMARK    6  A    between atoms: C_18  and  C_21 
REMARK    7  A    between atoms: C_23  and  C_24 
REMARK    8  A    between atoms: C_26  and  C_31 
ROOT
HETATM    1  C   UNK     0      -5.993 -35.624   2.981  0.00  0.00     0.027 A 
HETATM    2  C   UNK     0      -4.896 -36.015   3.989  0.00  0.00     0.005 A 
HETATM    3  C   UNK     0      -4.973 -35.513   5.443  0.00  0.00     0.005 A 
HETATM    4  C   UNK     0      -6.147 -34.620   5.888  0.00  0.00     0.022 A 
HETATM    5  C   UNK     0      -7.243 -34.229   4.879  0.00  0.00    -0.044 A 
HETATM    6  C   UNK     0      -7.166 -34.731   3.426  0.00  0.00    -0.011 A 
HETATM    7  C   UNK     0      -8.416 -33.336   5.325  0.00  0.00     0.052 A 
HETATM    8  C   UNK     0      -9.512 -32.946   4.316  0.00  0.00     0.134 A 
HETATM    9  C   UNK     0      -9.435 -33.448   2.862  0.00  0.00     0.082 A 
HETATM   10  C   UNK     0      -8.262 -34.341   2.417  0.00  0.00     0.078 A 
ENDROOT
BRANCH  10  11
HETATM   11  O   UNK     0      -8.185 -34.843   0.963  0.00  0.00    -0.289 OA
BRANCH  11  12
HETATM   12  C   UNK     0      -8.655 -33.937  -0.190  0.00  0.00     0.225 C 
HETATM   13  O   UNK     0     -10.152 -33.852  -0.542  0.00  0.00    -0.164 OA
BRANCH  12  14
HETATM   14  C   UNK     0      -7.628 -33.116  -0.992  0.00  0.00     0.010 A 
HETATM   15  C   UNK     0      -8.083 -31.875  -1.783  0.00  0.00     0.058 A 
HETATM   16  C   UNK     0      -7.055 -31.054  -2.585  0.00  0.00     0.075 A 
HETATM   17  C   UNK     0      -5.573 -31.474  -2.595  0.00  0.00     0.109 A 
HETATM   18  C   UNK     0      -5.119 -32.715  -1.804  0.00  0.00     0.058 A 
HETATM   19  O   UNK     0      -4.546 -30.653  -3.397  0.00  0.00    -0.195 OA
HETATM   20  C   UNK     0      -6.146 -33.536  -1.002  0.00  0.00     0.033 A 
BRANCH  16  21
HETATM   21  C   UNK     0      -7.510 -29.813  -3.376  0.00  0.00     0.417 C 
HETATM   22  F   UNK     0      -7.215 -29.711  -4.884  0.00  0.00    -0.166 F 
HETATM   23  F   UNK     0      -8.259 -28.676  -2.659  0.00  0.00    -0.166 F 
HETATM   24  F   UNK     0      -7.964 -28.573  -4.167  0.00  0.00    -0.166 F 
ENDBRANCH  16  21
ENDBRANCH  12  14
ENDBRANCH  11  12
ENDBRANCH  10  11
BRANCH   8  25
HETATM   25  O   UNK     0     -10.686 -32.053   4.761  0.00  0.00    -0.311 OA
BRANCH  25  26
HETATM   26  C   UNK     0     -11.595 -31.395   3.707  0.00  0.00     0.221 C 
HETATM   27  O   UNK     0     -13.066 -31.834   3.578  0.00  0.00    -0.164 OA
BRANCH  26  28
HETATM   28  C   UNK     0     -11.034 -30.299   2.782  0.00  0.00     0.009 A 
HETATM   29  C   UNK     0     -10.899 -30.562   1.270  0.00  0.00     0.033 A 
HETATM   30  C   UNK     0     -10.338 -29.466   0.345  0.00  0.00     0.058 A 
HETATM   31  C   UNK     0      -9.912 -28.107   0.931  0.00  0.00     0.109 A 
HETATM   32  C   UNK     0     -10.048 -27.844   2.443  0.00  0.00     0.075 A 
HETATM   33  O   UNK     0      -9.352 -27.011   0.006  0.00  0.00    -0.195 OA
HETATM   34  C   UNK     0     -10.609 -28.940   3.368  0.00  0.00     0.058 A 
BRANCH  32  35
HETATM   35  C   UNK     0      -9.622 -26.485   3.029  0.00  0.00     0.417 C 
HETATM   36  F   UNK     0      -8.135 -26.198   3.305  0.00  0.00    -0.166 F 
HETATM   37  F   UNK     0      -9.197 -25.126   3.615  0.00  0.00    -0.166 F 
HETATM   38  F   UNK     0     -10.685 -25.414   3.339  0.00  0.00    -0.166 F 
ENDBRANCH  32  35
ENDBRANCH  26  28
ENDBRANCH  25  26
ENDBRANCH   8  25
TORSDOF 8
ENDMDL
MODEL 7
REMARK VINA RESULT:      -9.2     18.006     21.613
REMARK  8 active torsions:
REMARK  status: ('A' for Active; 'I' for Inactive)
REMARK    1  A    between atoms: C_8  and  O_12 
REMARK    2  A    between atoms: C_10  and  O_11 
REMARK    3  A    between atoms: O_11  and  C_23 
REMARK    4  A    between atoms: O_12  and  C_13 
REMARK    5  A    between atoms: C_13  and  C_14 
REMARK    6  A    between atoms: C_18  and  C_21 
REMARK    7  A    between atoms: C_23  and  C_24 
REMARK    8  A    between atoms: C_26  and  C_31 
ROOT
HETATM    1  C   UNK     0      -7.758 -41.135  18.778  0.00  0.00     0.027 A 
HETATM    2  C   UNK     0      -9.015 -41.707  18.096  0.00  0.00     0.005 A 
HETATM    3  C   UNK     0      -9.405 -43.181  18.312  0.00  0.00     0.005 A 
HETATM    4  C   UNK     0      -8.538 -44.083  19.210  0.00  0.00     0.022 A 
HETATM    5  C   UNK     0      -7.281 -43.511  19.891  0.00  0.00    -0.044 A 
HETATM    6  C   UNK     0      -6.891 -42.037  19.675  0.00  0.00    -0.011 A 
HETATM    7  C   UNK     0      -6.414 -44.413  20.789  0.00  0.00     0.052 A 
HETATM    8  C   UNK     0      -5.157 -43.842  21.470  0.00  0.00     0.134 A 
HETATM    9  C   UNK     0      -4.767 -42.367  21.254  0.00  0.00     0.082 A 
HETATM   10  C   UNK     0      -5.634 -41.465  20.356  0.00  0.00     0.078 A 
ENDROOT
BRANCH  10  11
HETATM   11  O   UNK     0      -5.244 -39.991  20.140  0.00  0.00    -0.289 OA
BRANCH  11  12
HETATM   12  C   UNK     0      -4.121 -39.629  19.150  0.00  0.00     0.225 C 
HETATM   13  O   UNK     0      -3.150 -38.478  19.474  0.00  0.00    -0.164 OA
BRANCH  12  14
HETATM   14  C   UNK     0      -3.970 -40.417  17.836  0.00  0.00     0.010 A 
HETATM   15  C   UNK     0      -2.857 -41.472  17.695  0.00  0.00     0.058 A 
HETATM   16  C   UNK     0      -2.705 -42.261  16.381  0.00  0.00     0.075 A 
HETATM   17  C   UNK     0      -3.667 -41.994  15.208  0.00  0.00     0.109 A 
HETATM   18  C   UNK     0      -4.779 -40.940  15.349  0.00  0.00     0.058 A 
HETATM   19  O   UNK     0      -3.515 -42.783  13.894  0.00  0.00    -0.195 OA
HETATM   20  C   UNK     0      -4.932 -40.151  16.663  0.00  0.00     0.033 A 
BRANCH  16  21
HETATM   21  C   UNK     0      -1.592 -43.316  16.240  0.00  0.00     0.417 C 
HETATM   22  F   UNK     0      -0.588 -43.225  15.076  0.00  0.00    -0.166 F 
HETATM   23  F   UNK     0      -1.483 -44.461  17.263  0.00  0.00    -0.166 F 
HETATM   24  F   UNK     0      -0.479 -44.370  16.099  0.00  0.00    -0.166 F 
ENDBRANCH  16  21
ENDBRANCH  12  14
ENDBRANCH  11  12
ENDBRANCH  10  11
BRANCH   8  25
HETATM   25  O   UNK     0      -4.289 -44.744  22.368  0.00  0.00    -0.311 OA
BRANCH  25  26
HETATM   26  C   UNK     0      -4.692 -46.211  22.603  0.00  0.00     0.221 C 
HETATM   27  O   UNK     0      -5.650 -46.571  23.754  0.00  0.00    -0.164 OA
BRANCH  26  28
HETATM   28  C   UNK     0      -4.137 -47.318  21.688  0.00  0.00     0.009 A 
HETATM   29  C   UNK     0      -4.543 -48.786  21.920  0.00  0.00     0.033 A 
HETATM   30  C   UNK     0      -3.987 -49.893  21.005  0.00  0.00     0.058 A 
HETATM   31  C   UNK     0      -3.026 -49.533  19.857  0.00  0.00     0.109 A 
HETATM   32  C   UNK     0      -2.620 -48.065  19.625  0.00  0.00     0.075 A 
HETATM   33  O   UNK     0      -2.471 -50.639  18.942  0.00  0.00    -0.195 OA
HETATM   34  C   UNK     0      -3.175 -46.958  20.540  0.00  0.00     0.058 A 
BRANCH  32  35
HETATM   35  C   UNK     0      -1.658 -47.705  18.477  0.00  0.00     0.417 C 
HETATM   36  F   UNK     0      -0.137 -47.717  18.715  0.00  0.00    -0.166 F 
HETATM   37  F   UNK     0      -0.697 -47.345  17.329  0.00  0.00    -0.166 F 
HETATM   38  F   UNK     0      -2.219 -47.333  17.091  0.00  0.00    -0.166 F 
ENDBRANCH  32  35
ENDBRANCH  26  28
ENDBRANCH  25  26
ENDBRANCH   8  25
TORSDOF 8
ENDMDL
MODEL 8
REMARK VINA RESULT:      -9.0     18.170     21.655
REMARK  8 active torsions:
REMARK  status: ('A' for Active; 'I' for Inactive)
REMARK    1  A    between atoms: C_8  and  O_12 
REMARK    2  A    between atoms: C_10  and  O_11 
REMARK    3  A    between atoms: O_11  and  C_23 
REMARK    4  A    between atoms: O_12  and  C_13 
REMARK    5  A    between atoms: C_13  and  C_14 
REMARK    6  A    between atoms: C_18  and  C_21 
REMARK    7  A    between atoms: C_23  and  C_24 
REMARK    8  A    between atoms: C_26  and  C_31 
ROOT
HETATM    1  C   UNK     0      -1.475 -44.113  17.599  0.00  0.00     0.027 A 
HETATM    2  C   UNK     0      -0.996 -43.851  16.159  0.00  0.00     0.005 A 
HETATM    3  C   UNK     0      -1.532 -42.638  15.378  0.00  0.00     0.005 A 
HETATM    4  C   UNK     0      -2.549 -41.686  16.036  0.00  0.00     0.022 A 
HETATM    5  C   UNK     0      -3.029 -41.948  17.476  0.00  0.00    -0.044 A 
HETATM    6  C   UNK     0      -2.492 -43.162  18.258  0.00  0.00    -0.011 A 
HETATM    7  C   UNK     0      -4.044 -40.997  18.134  0.00  0.00     0.052 A 
HETATM    8  C   UNK     0      -4.524 -41.258  19.574  0.00  0.00     0.134 A 
HETATM    9  C   UNK     0      -3.987 -42.472  20.356  0.00  0.00     0.082 A 
HETATM   10  C   UNK     0      -2.971 -43.424  19.697  0.00  0.00     0.078 A 
ENDROOT
BRANCH  10  11
HETATM   11  O   UNK     0      -2.434 -44.637  20.479  0.00  0.00    -0.289 OA
BRANCH  11  12
HETATM   12  C   UNK     0      -3.354 -45.841  20.758  0.00  0.00     0.225 C 
HETATM   13  O   UNK     0      -4.256 -45.849  22.006  0.00  0.00    -0.164 OA
BRANCH  12  14
HETATM   14  C   UNK     0      -3.371 -47.038  19.788  0.00  0.00     0.010 A 
HETATM   15  C   UNK     0      -2.173 -48.005  19.738  0.00  0.00     0.058 A 
HETATM   16  C   UNK     0      -2.190 -49.201  18.769  0.00  0.00     0.075 A 
HETATM   17  C   UNK     0      -3.404 -49.431  17.850  0.00  0.00     0.109 A 
HETATM   18  C   UNK     0      -4.602 -48.465  17.901  0.00  0.00     0.058 A 
HETATM   19  O   UNK     0      -3.421 -50.628  16.881  0.00  0.00    -0.195 OA
HETATM   20  C   UNK     0      -4.585 -47.268  18.870  0.00  0.00     0.033 A 
BRANCH  16  21
HETATM   21  C   UNK     0      -0.992 -50.168  18.718  0.00  0.00     0.417 C 
HETATM   22  F   UNK     0      -0.718 -51.118  19.899  0.00  0.00    -0.166 F 
HETATM   23  F   UNK     0      -0.068 -50.185  17.486  0.00  0.00    -0.166 F 
HETATM   24  F   UNK     0       0.206 -51.135  18.668  0.00  0.00    -0.166 F 
ENDBRANCH  16  21
ENDBRANCH  12  14
ENDBRANCH  11  12
ENDBRANCH  10  11
BRANCH   8  25
HETATM   25  O   UNK     0      -5.541 -40.307  20.233  0.00  0.00    -0.311 OA
BRANCH  25  26
HETATM   26  C   UNK     0      -5.940 -38.999  19.526  0.00  0.00     0.221 C 
HETATM   27  O   UNK     0      -7.123 -38.986  18.540  0.00  0.00    -0.164 OA
BRANCH  26  28
HETATM   28  C   UNK     0      -5.157 -37.702  19.805  0.00  0.00     0.009 A 
HETATM   29  C   UNK     0      -5.751 -36.341  19.400  0.00  0.00     0.033 A 
HETATM   30  C   UNK     0      -4.968 -35.044  19.679  0.00  0.00     0.058 A 
HETATM   31  C   UNK     0      -3.590 -35.110  20.364  0.00  0.00     0.109 A 
HETATM   32  C   UNK     0      -2.995 -36.471  20.769  0.00  0.00     0.075 A 
HETATM   33  O   UNK     0      -2.807 -33.814  20.643  0.00  0.00    -0.195 OA
HETATM   34  C   UNK     0      -3.779 -37.768  20.490  0.00  0.00     0.058 A 
BRANCH  32  35
HETATM   35  C   UNK     0      -1.618 -36.537  21.454  0.00  0.00     0.417 C 
HETATM   36  F   UNK     0      -0.429 -37.196  20.730  0.00  0.00    -0.166 F 
HETATM   37  F   UNK     0      -0.240 -36.602  22.138  0.00  0.00    -0.166 F 
HETATM   38  F   UNK     0      -1.429 -35.943  22.862  0.00  0.00    -0.166 F 
ENDBRANCH  32  35
ENDBRANCH  26  28
ENDBRANCH  25  26
ENDBRANCH   8  25
TORSDOF 8
ENDMDL
MODEL 9
REMARK VINA RESULT:      -8.9     19.688     23.427
REMARK  8 active torsions:
REMARK  status: ('A' for Active; 'I' for Inactive)
REMARK    1  A    between atoms: C_8  and  O_12 
REMARK    2  A    between atoms: C_10  and  O_11 
REMARK    3  A    between atoms: O_11  and  C_23 
REMARK    4  A    between atoms: O_12  and  C_13 
REMARK    5  A    between atoms: C_13  and  C_14 
REMARK    6  A    between atoms: C_18  and  C_21 
REMARK    7  A    between atoms: C_23  and  C_24 
REMARK    8  A    between atoms: C_26  and  C_31 
ROOT
HETATM    1  C   UNK     0       5.589 -34.965 -12.760  0.00  0.00     0.027 A 
HETATM    2  C   UNK     0       6.500 -35.889 -13.591  0.00  0.00     0.005 A 
HETATM    3  C   UNK     0       8.027 -35.841 -13.397  0.00  0.00     0.005 A 
HETATM    4  C   UNK     0       8.643 -34.869 -12.374  0.00  0.00     0.022 A 
HETATM    5  C   UNK     0       7.732 -33.945 -11.543  0.00  0.00    -0.044 A 
HETATM    6  C   UNK     0       6.205 -33.993 -11.736  0.00  0.00    -0.011 A 
HETATM    7  C   UNK     0       8.349 -32.974 -10.520  0.00  0.00     0.052 A 
HETATM    8  C   UNK     0       7.438 -32.050  -9.690  0.00  0.00     0.134 A 
HETATM    9  C   UNK     0       5.911 -32.098  -9.883  0.00  0.00     0.082 A 
HETATM   10  C   UNK     0       5.295 -33.070 -10.907  0.00  0.00     0.078 A 
ENDROOT
BRANCH  10  11
HETATM   11  O   UNK     0       3.768 -33.118 -11.100  0.00  0.00    -0.289 OA
BRANCH  11  12
HETATM   12  C   UNK     0       2.974 -34.361 -10.658  0.00  0.00     0.225 C 
HETATM   13  O   UNK     0       3.172 -34.938  -9.243  0.00  0.00    -0.164 OA
BRANCH  12  14
HETATM   14  C   UNK     0       1.983 -35.028 -11.630  0.00  0.00     0.010 A 
HETATM   15  C   UNK     0       1.418 -36.426 -11.315  0.00  0.00     0.058 A 
HETATM   16  C   UNK     0       0.427 -37.093 -12.287  0.00  0.00     0.075 A 
HETATM   17  C   UNK     0       0.001 -36.362 -13.574  0.00  0.00     0.109 A 
HETATM   18  C   UNK     0       0.566 -34.965 -13.888  0.00  0.00     0.058 A 
HETATM   19  O   UNK     0      -0.990 -37.029 -14.546  0.00  0.00    -0.195 OA
HETATM   20  C   UNK     0       1.557 -34.297 -12.917  0.00  0.00     0.033 A 
BRANCH  16  21
HETATM   21  C   UNK     0      -0.138 -38.491 -11.972  0.00  0.00     0.417 C 
HETATM   22  F   UNK     0       0.798 -39.602 -11.461  0.00  0.00    -0.166 F 
HETATM   23  F   UNK     0      -1.638 -38.777 -12.167  0.00  0.00    -0.166 F 
HETATM   24  F   UNK     0      -0.702 -39.888 -11.657  0.00  0.00    -0.166 F 
ENDBRANCH  16  21
ENDBRANCH  12  14
ENDBRANCH  11  12
ENDBRANCH  10  11
BRANCH   8  25
HETATM   25  O   UNK     0       8.055 -31.078  -8.666  0.00  0.00    -0.311 OA
BRANCH  25  26
HETATM   26  C   UNK     0       9.570 -30.808  -8.677  0.00  0.00     0.221 C 
HETATM   27  O   UNK     0      10.517 -31.694  -7.847  0.00  0.00    -0.164 OA
BRANCH  26  28
HETATM   28  C   UNK     0      10.140 -29.651  -9.519  0.00  0.00     0.009 A 
HETATM   29  C   UNK     0       9.969 -29.655 -11.050  0.00  0.00     0.033 A 
HETATM   30  C   UNK     0      10.538 -28.498 -11.892  0.00  0.00     0.058 A 
HETATM   31  C   UNK     0      11.278 -27.336 -11.203  0.00  0.00     0.109 A 
HETATM   32  C   UNK     0      11.449 -27.332  -9.673  0.00  0.00     0.075 A 
HETATM   33  O   UNK     0      11.848 -26.179 -12.045  0.00  0.00    -0.195 OA
HETATM   34  C   UNK     0      10.879 -28.489  -8.830  0.00  0.00     0.058 A 
BRANCH  32  35
HETATM   35  C   UNK     0      12.189 -26.170  -8.984  0.00  0.00     0.417 C 
HETATM   36  F   UNK     0      11.451 -25.285  -7.962  0.00  0.00    -0.166 F 
HETATM   37  F   UNK     0      12.929 -25.008  -8.295  0.00  0.00    -0.166 F 
HETATM   38  F   UNK     0      13.667 -25.893  -9.317  0.00  0.00    -0.166 F 
ENDBRANCH  32  35
ENDBRANCH  26  28
ENDBRANCH  25  26
ENDBRANCH   8  25
TORSDOF 8
ENDMDL
