REMARK  6 active torsions:
REMARK  status: ('A' for Active; 'I' for Inactive)
REMARK    1  A    between atoms: C_1  and  O_11 
REMARK    2  A    between atoms: C_5  and  O_12 
REMARK    3  A    between atoms: O_11  and  C_23 
REMARK    4  A    between atoms: O_12  and  C_13 
REMARK    5  A    between atoms: C_13  and  C_14 
REMARK    6  A    between atoms: C_23  and  C_24 
ROOT
HETATM    1  C   UNK     0      -1.416   1.360   0.000  0.00  0.00     0.078 A 
HETATM    2  C   UNK     0      -0.082   2.130   0.000  0.00  0.00    -0.011 A 
HETATM    3  C   UNK     0      -0.082   3.670   0.000  0.00  0.00    -0.044 A 
HETATM    4  C   UNK     0      -1.416   4.440   0.000  0.00  0.00     0.052 A 
HETATM    5  C   UNK     0      -2.750   3.670   0.000  0.00  0.00     0.134 A 
HETATM    6  C   UNK     0      -2.750   2.130   0.000  0.00  0.00     0.082 A 
HETATM    7  C   UNK     0       1.251   1.360   0.000  0.00  0.00     0.027 A 
HETATM    8  C   UNK     0       2.585   2.130   0.000  0.00  0.00     0.005 A 
HETATM    9  C   UNK     0       2.585   3.670   0.000  0.00  0.00     0.005 A 
HETATM   10  C   UNK     0       1.251   4.440   0.000  0.00  0.00     0.022 A 
ENDROOT
BRANCH   1  11
HETATM   11  O   UNK     0      -1.416  -0.180   0.000  0.00  0.00    -0.289 OA
BRANCH  11  12
HETATM   12  C   UNK     0      -2.750  -0.950   0.000  0.00  0.00     0.224 C 
HETATM   13  O   UNK     0      -4.083  -0.180   0.000  0.00  0.00    -0.164 OA
BRANCH  12  14
HETATM   14  C   UNK     0      -2.750  -2.490   0.000  0.00  0.00     0.010 A 
HETATM   15  C   UNK     0      -4.083  -3.260   0.000  0.00  0.00     0.059 A 
HETATM   16  C   UNK     0      -4.083  -4.800   0.000  0.00  0.00     0.159 A 
HETATM   17  C   UNK     0      -2.750  -5.570   0.000  0.00  0.00     0.067 A 
HETATM   18  O   UNK     0      -5.417  -5.570   0.000  0.00  0.00    -0.223 OA
HETATM   19  C   UNK     0      -1.416  -4.800   0.000  0.00  0.00     0.159 A 
HETATM   20  C   UNK     0      -1.416  -3.260   0.000  0.00  0.00     0.059 A 
HETATM   21  O   UNK     0      -0.082  -5.570   0.000  0.00  0.00    -0.223 OA
ENDBRANCH  12  14
ENDBRANCH  11  12
ENDBRANCH   1  11
BRANCH   5  22
HETATM   22  O   UNK     0      -4.083   4.440   0.000  0.00  0.00    -0.311 OA
BRANCH  22  23
HETATM   23  C   UNK     0      -5.417   3.670   0.000  0.00  0.00     0.221 C 
HETATM   24  O   UNK     0      -5.417   2.130   0.000  0.00  0.00    -0.164 OA
BRANCH  23  25
HETATM   25  C   UNK     0      -6.751   4.440   0.000  0.00  0.00     0.012 A 
HETATM   26  C   UNK     0      -8.085   3.670   0.000  0.00  0.00     0.034 A 
HETATM   27  C   UNK     0      -9.418   4.440   0.000  0.00  0.00     0.061 A 
HETATM   28  C   UNK     0      -9.418   5.980   0.000  0.00  0.00     0.130 A 
HETATM   29  C   UNK     0      -8.085   6.750   0.000  0.00  0.00     0.134 A 
HETATM   30  O   UNK     0     -10.752   6.750   0.000  0.00  0.00    -0.193 OA
HETATM   31  C   UNK     0      -6.751   5.980   0.000  0.00  0.00     0.082 A 
HETATM   32  O   UNK     0      -8.085   8.290   0.000  0.00  0.00    -0.193 OA
ENDBRANCH  23  25
ENDBRANCH  22  23
ENDBRANCH   5  22
TORSDOF 6
