@<TRIPOS>MOLECULE
C:\Users\Ganatra\Desktop\Research Project\Vina5\Reference\ligand.pdbqt
 32 35 0 0 0
SMALL
GASTEIGER

@<TRIPOS>ATOM
      1  C         -1.4160    1.3600    0.0000 C.ar    0  UNK0        0.0780
      2  C         -0.0820    2.1300    0.0000 C.ar    0  UNK0       -0.0110
      3  C         -0.0820    3.6700    0.0000 C.ar    0  UNK0       -0.0440
      4  C         -1.4160    4.4400    0.0000 C.ar    0  UNK0        0.0520
      5  C         -2.7500    3.6700    0.0000 C.ar    0  UNK0        0.1340
      6  C         -2.7500    2.1300    0.0000 C.ar    0  UNK0        0.0820
      7  C          1.2510    1.3600    0.0000 C.ar    0  UNK0        0.0270
      8  C          2.5850    2.1300    0.0000 C.ar    0  UNK0        0.0050
      9  C          2.5850    3.6700    0.0000 C.ar    0  UNK0        0.0050
     10  C          1.2510    4.4400    0.0000 C.ar    0  UNK0        0.0220
     11  O         -1.4160   -0.1800    0.0000 O.3     0  UNK0       -0.2890
     12  C         -2.7500   -0.9500    0.0000 C.2     0  UNK0        0.2240
     13  O         -4.0830   -0.1800    0.0000 O.2     0  UNK0       -0.1640
     14  C         -2.7500   -2.4900    0.0000 C.ar    0  UNK0        0.0100
     15  C         -4.0830   -3.2600    0.0000 C.ar    0  UNK0        0.0590
     16  C         -4.0830   -4.8000    0.0000 C.ar    0  UNK0        0.1590
     17  C         -2.7500   -5.5700    0.0000 C.ar    0  UNK0        0.0670
     18  O         -5.4170   -5.5700    0.0000 O.3     0  UNK0       -0.2230
     19  C         -1.4160   -4.8000    0.0000 C.ar    0  UNK0        0.1590
     20  C         -1.4160   -3.2600    0.0000 C.ar    0  UNK0        0.0590
     21  O         -0.0820   -5.5700    0.0000 O.3     0  UNK0       -0.2230
     22  O         -4.0830    4.4400    0.0000 O.3     0  UNK0       -0.3110
     23  C         -5.4170    3.6700    0.0000 C.2     0  UNK0        0.2210
     24  O         -5.4170    2.1300    0.0000 O.2     0  UNK0       -0.1640
     25  C         -6.7510    4.4400    0.0000 C.ar    0  UNK0        0.0120
     26  C         -8.0850    3.6700    0.0000 C.ar    0  UNK0        0.0340
     27  C         -9.4180    4.4400    0.0000 C.ar    0  UNK0        0.0610
     28  C         -9.4180    5.9800    0.0000 C.ar    0  UNK0        0.1300
     29  C         -8.0850    6.7500    0.0000 C.ar    0  UNK0        0.1340
     30  O        -10.7520    6.7500    0.0000 O.3     0  UNK0       -0.1930
     31  C         -6.7510    5.9800    0.0000 C.ar    0  UNK0        0.0820
     32  O         -8.0850    8.2900    0.0000 O.3     0  UNK0       -0.1930
@<TRIPOS>BOND
     1     1     2   ar
     2     1     6   ar
     3     1    11    1
     4     2     3   ar
     5     2     7   ar
     6     3     4   ar
     7     3    10   ar
     8     4     5   ar
     9     5     6   ar
    10     5    22    1
    11     7     8   ar
    12     8     9   ar
    13     9    10   ar
    14    11    12    1
    15    12    13    2
    16    12    14    1
    17    14    15   ar
    18    14    20   ar
    19    15    16   ar
    20    16    17   ar
    21    16    18    1
    22    17    19   ar
    23    19    20   ar
    24    19    21    1
    25    22    23    1
    26    23    24    2
    27    23    25    1
    28    25    26   ar
    29    25    31   ar
    30    26    27   ar
    31    27    28   ar
    32    28    29   ar
    33    28    30    1
    34    29    31   ar
    35    29    32    1
